LTspice 24.1.9 for Windows
Circuit: C:\Users\dasre\Documents\Knowledge-db\ghFiles\HW-Projects\E2-BoostConverter\Examen2Boost.net
Start Time: Wed May 13 13:55:51 2026
solver = Normal
Maximum thread count: 8
tnom = 27
temp = 27
method = trap
Direct Newton iteration for .op point succeeded.
Warning: Simulation tolerance relaxed to achieve convergence from 8.1119333333324823e-06 to 8.1119333333334818e-06 seconds.
Warning: Simulation tolerance relaxed to achieve convergence from 1.8111933333332481e-05 to 1.8111933333333481e-05 seconds.
Warning: Simulation tolerance relaxed to achieve convergence from 2.8111933333332481e-05 to 2.8111933333333480e-05 seconds.
Warning: Simulation tolerance relaxed to achieve convergence from 3.8111933333332490e-05 to 3.8111933333333493e-05 seconds.
Warning: Simulation tolerance relaxed to achieve convergence from 4.8111933333332496e-05 to 4.8111933333333499e-05 seconds.
Warning: Simulation tolerance relaxed to achieve convergence from 5.8111933333332495e-05 to 5.8111933333333498e-05 seconds.
Warning: Simulation tolerance relaxed to achieve convergence from 6.8111933333332494e-05 to 6.8111933333333497e-05 seconds.
Warning: Simulation tolerance relaxed to achieve convergence from 7.8111933333332493e-05 to 7.8111933333333496e-05 seconds.
Warning: Simulation tolerance relaxed to achieve convergence from 8.8111933333332492e-05 to 8.8111933333333495e-05 seconds.
Warning: Simulation tolerance relaxed to achieve convergence from 9.8111933333332491e-05 to 9.8111933333333494e-05 seconds.
Warning: Simulation tolerance relaxed to achieve convergence from 1.0811193333333249e-04 to 1.0811193333333349e-04 seconds.
Warning: Simulation tolerance relaxed to achieve convergence from 1.1811193333333249e-04 to 1.1811193333333349e-04 seconds.
Warning: Simulation tolerance relaxed to achieve convergence from 1.2811193333333242e-04 to 1.2811193333333342e-04 seconds.
Warning: Simulation tolerance relaxed to achieve convergence from 1.3811193333333245e-04 to 1.3811193333333345e-04 seconds.
Warning: Simulation tolerance relaxed to achieve convergence from 1.4811193333333242e-04 to 1.4811193333333342e-04 seconds.
Warning: Simulation tolerance relaxed to achieve convergence from 1.5811193333333245e-04 to 1.5811193333333345e-04 seconds.
Warning: Simulation tolerance relaxed to achieve convergence from 1.6811193333333242e-04 to 1.6811193333333342e-04 seconds.
Warning: Simulation tolerance relaxed to achieve convergence from 1.7811193333333244e-04 to 1.7811193333333345e-04 seconds.
Warning: Simulation tolerance relaxed to achieve convergence from 1.8811193333333242e-04 to 1.8811193333333342e-04 seconds.
Warning: Simulation tolerance relaxed to achieve convergence from 1.9811193333333244e-04 to 1.9811193333333344e-04 seconds.
Warning: Simulation tolerance relaxed to achieve convergence from 2.0811193333333241e-04 to 2.0811193333333342e-04 seconds.
Warning: Simulation tolerance relaxed to achieve convergence from 2.1811193333333244e-04 to 2.1811193333333344e-04 seconds.
Warning: Simulation tolerance relaxed to achieve convergence from 2.2811193333333241e-04 to 2.2811193333333342e-04 seconds.
Warning: Simulation tolerance relaxed to achieve convergence from 2.3811193333333244e-04 to 2.3811193333333344e-04 seconds.
Warning: Simulation tolerance relaxed to achieve convergence from 2.4811193333333241e-04 to 2.4811193333333339e-04 seconds.
Warning: Simulation tolerance relaxed to achieve convergence from 2.5811193333333244e-04 to 2.5811193333333341e-04 seconds.
Warning: Simulation tolerance relaxed to achieve convergence from 2.6811193333333246e-04 to 2.6811193333333344e-04 seconds.
Warning: Simulation tolerance relaxed to achieve convergence from 2.7811193333333238e-04 to 2.7811193333333336e-04 seconds.
Warning: Simulation tolerance relaxed to achieve convergence from 2.8811193333333241e-04 to 2.8811193333333338e-04 seconds.
Warning: Simulation tolerance relaxed to achieve convergence from 2.9811193333333243e-04 to 2.9811193333333341e-04 seconds.
Warning: Simulation tolerance relaxed to achieve convergence from 3.0811193333333246e-04 to 3.0811193333333344e-04 seconds.
Warning: Simulation tolerance relaxed to achieve convergence from 3.1811193333333238e-04 to 3.1811193333333335e-04 seconds.
Warning: Simulation tolerance relaxed to achieve convergence from 3.2811193333333240e-04 to 3.2811193333333338e-04 seconds.
Warning: Simulation tolerance relaxed to achieve convergence from 3.3811193333333243e-04 to 3.3811193333333341e-04 seconds.
Warning: Simulation tolerance relaxed to achieve convergence from 3.4811193333333246e-04 to 3.4811193333333343e-04 seconds.
Warning: Simulation tolerance relaxed to achieve convergence from 3.5811193333333237e-04 to 3.5811193333333335e-04 seconds.
Warning: Simulation tolerance relaxed to achieve convergence from 3.6811193333333240e-04 to 3.6811193333333338e-04 seconds.
Warning: Simulation tolerance relaxed to achieve convergence from 3.7811193333333243e-04 to 3.7811193333333340e-04 seconds.
Warning: Simulation tolerance relaxed to achieve convergence from 3.8811193333333245e-04 to 3.8811193333333343e-04 seconds.
Warning: Simulation tolerance relaxed to achieve convergence from 3.9811193333333237e-04 to 3.9811193333333335e-04 seconds.
Warning: Simulation tolerance relaxed to achieve convergence from 4.0811193333333240e-04 to 4.0811193333333337e-04 seconds.
Warning: Simulation tolerance relaxed to achieve convergence from 4.1811193333333242e-04 to 4.1811193333333340e-04 seconds.
Warning: Simulation tolerance relaxed to achieve convergence from 4.2811193333333245e-04 to 4.2811193333333342e-04 seconds.
Warning: Simulation tolerance relaxed to achieve convergence from 4.3811193333333237e-04 to 4.3811193333333334e-04 seconds.
Warning: Simulation tolerance relaxed to achieve convergence from 4.4811193333333239e-04 to 4.4811193333333337e-04 seconds.
Warning: Simulation tolerance relaxed to achieve convergence from 4.5811193333333242e-04 to 4.5811193333333339e-04 seconds.
Warning: Simulation tolerance relaxed to achieve convergence from 4.6811193333333245e-04 to 4.6811193333333342e-04 seconds.
Warning: Simulation tolerance relaxed to achieve convergence from 4.7811193333333236e-04 to 4.7811193333333334e-04 seconds.
Warning: Simulation tolerance relaxed to achieve convergence from 4.8811193333333239e-04 to 4.8811193333333337e-04 seconds.
Warning: Simulation tolerance relaxed to achieve convergence from 4.9811193333333258e-04 to 4.9811193333333355e-04 seconds.
Warning: Simulation tolerance relaxed to achieve convergence from 5.0811193333333260e-04 to 5.0811193333333358e-04 seconds.
Warning: Simulation tolerance relaxed to achieve convergence from 5.1811193333333252e-04 to 5.1811193333333350e-04 seconds.
Warning: Simulation tolerance relaxed to achieve convergence from 5.2811193333333255e-04 to 5.2811193333333352e-04 seconds.
Warning: Simulation tolerance relaxed to achieve convergence from 5.3811193333333257e-04 to 5.3811193333333355e-04 seconds.
Warning: Simulation tolerance relaxed to achieve convergence from 5.4811193333333249e-04 to 5.4811193333333347e-04 seconds.
Warning: Simulation tolerance relaxed to achieve convergence from 5.5811193333333252e-04 to 5.5811193333333349e-04 seconds.
Warning: Simulation tolerance relaxed to achieve convergence from 5.6811193333333255e-04 to 5.6811193333333352e-04 seconds.
Warning: Simulation tolerance relaxed to achieve convergence from 5.7811193333333257e-04 to 5.7811193333333355e-04 seconds.
Warning: Simulation tolerance relaxed to achieve convergence from 5.8811193333333260e-04 to 5.8811193333333357e-04 seconds.
Warning: Simulation tolerance relaxed to achieve convergence from 5.9811193333333252e-04 to 5.9811193333333349e-04 seconds.
Warning: Simulation tolerance relaxed to achieve convergence from 6.0811193333333254e-04 to 6.0811193333333352e-04 seconds.
Warning: Simulation tolerance relaxed to achieve convergence from 6.1811193333333257e-04 to 6.1811193333333354e-04 seconds.
Warning: Simulation tolerance relaxed to achieve convergence from 6.2811193333333249e-04 to 6.2811193333333346e-04 seconds.
Warning: Simulation tolerance relaxed to achieve convergence from 6.3811193333333251e-04 to 6.3811193333333349e-04 seconds.
Warning: Simulation tolerance relaxed to achieve convergence from 6.4811193333333254e-04 to 6.4811193333333351e-04 seconds.
Warning: Simulation tolerance relaxed to achieve convergence from 6.5811193333333256e-04 to 6.5811193333333354e-04 seconds.
Warning: Simulation tolerance relaxed to achieve convergence from 6.6811193333333259e-04 to 6.6811193333333357e-04 seconds.
Warning: Simulation tolerance relaxed to achieve convergence from 6.7811193333333251e-04 to 6.7811193333333348e-04 seconds.
Warning: Simulation tolerance relaxed to achieve convergence from 6.8811193333333253e-04 to 6.8811193333333351e-04 seconds.
Warning: Simulation tolerance relaxed to achieve convergence from 6.9811193333333256e-04 to 6.9811193333333354e-04 seconds.
Warning: Simulation tolerance relaxed to achieve convergence from 7.0811193333333248e-04 to 7.0811193333333345e-04 seconds.
Warning: Simulation tolerance relaxed to achieve convergence from 7.1811193333333250e-04 to 7.1811193333333348e-04 seconds.
Warning: Simulation tolerance relaxed to achieve convergence from 7.2811193333333253e-04 to 7.2811193333333351e-04 seconds.
Warning: Simulation tolerance relaxed to achieve convergence from 7.3811193333333256e-04 to 7.3811193333333353e-04 seconds.
Warning: Simulation tolerance relaxed to achieve convergence from 7.4811193333333258e-04 to 7.4811193333333356e-04 seconds.
Warning: Simulation tolerance relaxed to achieve convergence from 7.5811193333333250e-04 to 7.5811193333333348e-04 seconds.
Warning: Simulation tolerance relaxed to achieve convergence from 7.6811193333333253e-04 to 7.6811193333333350e-04 seconds.
Warning: Simulation tolerance relaxed to achieve convergence from 7.7811193333333255e-04 to 7.7811193333333353e-04 seconds.
Warning: Simulation tolerance relaxed to achieve convergence from 7.8811193333333247e-04 to 7.8811193333333345e-04 seconds.
Warning: Simulation tolerance relaxed to achieve convergence from 7.9811193333333250e-04 to 7.9811193333333347e-04 seconds.
Warning: Simulation tolerance relaxed to achieve convergence from 8.0811193333333252e-04 to 8.0811193333333350e-04 seconds.
Warning: Simulation tolerance relaxed to achieve convergence from 8.1811193333333255e-04 to 8.1811193333333353e-04 seconds.
Warning: Simulation tolerance relaxed to achieve convergence from 8.2811193333333258e-04 to 8.2811193333333355e-04 seconds.
Warning: Simulation tolerance relaxed to achieve convergence from 8.3811193333333249e-04 to 8.3811193333333347e-04 seconds.
Warning: Simulation tolerance relaxed to achieve convergence from 8.4811193333333252e-04 to 8.4811193333333350e-04 seconds.
Warning: Simulation tolerance relaxed to achieve convergence from 8.5811193333333255e-04 to 8.5811193333333352e-04 seconds.
Warning: Simulation tolerance relaxed to achieve convergence from 8.6811193333333246e-04 to 8.6811193333333344e-04 seconds.
Warning: Simulation tolerance relaxed to achieve convergence from 8.7811193333333249e-04 to 8.7811193333333347e-04 seconds.
Warning: Simulation tolerance relaxed to achieve convergence from 8.8811193333333252e-04 to 8.8811193333333349e-04 seconds.
Warning: Simulation tolerance relaxed to achieve convergence from 8.9811193333333254e-04 to 8.9811193333333352e-04 seconds.
Warning: Simulation tolerance relaxed to achieve convergence from 9.0811193333333257e-04 to 9.0811193333333355e-04 seconds.
Warning: Simulation tolerance relaxed to achieve convergence from 9.1811193333333249e-04 to 9.1811193333333346e-04 seconds.
Warning: Simulation tolerance relaxed to achieve convergence from 9.2811193333333251e-04 to 9.2811193333333349e-04 seconds.
Warning: Simulation tolerance relaxed to achieve convergence from 9.3811193333333254e-04 to 9.3811193333333352e-04 seconds.
Warning: Simulation tolerance relaxed to achieve convergence from 9.4811193333333246e-04 to 9.4811193333333343e-04 seconds.
Warning: Simulation tolerance relaxed to achieve convergence from 9.5811193333333248e-04 to 9.5811193333333346e-04 seconds.
Warning: Simulation tolerance relaxed to achieve convergence from 9.6811193333333251e-04 to 9.6811193333333349e-04 seconds.
Warning: Simulation tolerance relaxed to achieve convergence from 9.7811193333333275e-04 to 9.7811193333333384e-04 seconds.
Warning: Simulation tolerance relaxed to achieve convergence from 9.8811193333333256e-04 to 9.8811193333333365e-04 seconds.
Warning: Simulation tolerance relaxed to achieve convergence from 9.9811193333333259e-04 to 9.9811193333333367e-04 seconds.
Warning: Simulation tolerance relaxed to achieve convergence from 1.0081119333333296e-03 to 1.0081119333333396e-03 seconds.
Warning: Simulation tolerance relaxed to achieve convergence from 1.0181119333333294e-03 to 1.0181119333333394e-03 seconds.
Warning: Simulation tolerance relaxed to achieve convergence from 1.0281119333333294e-03 to 1.0281119333333394e-03 seconds.
Warning: Simulation tolerance relaxed to achieve convergence from 1.0381119333333294e-03 to 1.0381119333333394e-03 seconds.
Warning: Simulation tolerance relaxed to achieve convergence from 1.0481119333333295e-03 to 1.0481119333333394e-03 seconds.
Warning: Simulation tolerance relaxed to achieve convergence from 1.0581119333333295e-03 to 1.0581119333333395e-03 seconds.
Warning: Simulation tolerance relaxed to achieve convergence from 1.0681119333333295e-03 to 1.0681119333333395e-03 seconds.
Warning: Simulation tolerance relaxed to achieve convergence from 1.0781119333333295e-03 to 1.0781119333333395e-03 seconds.
Warning: Simulation tolerance relaxed to achieve convergence from 1.0881119333333294e-03 to 1.0881119333333393e-03 seconds.
Warning: Simulation tolerance relaxed to achieve convergence from 1.0981119333333294e-03 to 1.0981119333333394e-03 seconds.
Warning: Simulation tolerance relaxed to achieve convergence from 1.1081119333333294e-03 to 1.1081119333333394e-03 seconds.
Warning: Simulation tolerance relaxed to achieve convergence from 1.1181119333333294e-03 to 1.1181119333333394e-03 seconds.
Warning: Simulation tolerance relaxed to achieve convergence from 1.1281119333333295e-03 to 1.1281119333333394e-03 seconds.
Warning: Simulation tolerance relaxed to achieve convergence from 1.1381119333333295e-03 to 1.1381119333333395e-03 seconds.
Warning: Simulation tolerance relaxed to achieve convergence from 1.1481119333333295e-03 to 1.1481119333333395e-03 seconds.
Warning: Simulation tolerance relaxed to achieve convergence from 1.1581119333333295e-03 to 1.1581119333333395e-03 seconds.
Warning: Simulation tolerance relaxed to achieve convergence from 1.1681119333333296e-03 to 1.1681119333333395e-03 seconds.
Warning: Simulation tolerance relaxed to achieve convergence from 1.1781119333333294e-03 to 1.1781119333333393e-03 seconds.
Warning: Simulation tolerance relaxed to achieve convergence from 1.1881119333333294e-03 to 1.1881119333333394e-03 seconds.
Warning: Simulation tolerance relaxed to achieve convergence from 1.1981119333333294e-03 to 1.1981119333333394e-03 seconds.
Warning: Simulation tolerance relaxed to achieve convergence from 1.2081119333333295e-03 to 1.2081119333333394e-03 seconds.
Warning: Simulation tolerance relaxed to achieve convergence from 1.2181119333333295e-03 to 1.2181119333333395e-03 seconds.
Warning: Simulation tolerance relaxed to achieve convergence from 1.2281119333333295e-03 to 1.2281119333333395e-03 seconds.
Warning: Simulation tolerance relaxed to achieve convergence from 1.2381119333333295e-03 to 1.2381119333333395e-03 seconds.
Warning: Simulation tolerance relaxed to achieve convergence from 1.2481119333333293e-03 to 1.2481119333333393e-03 seconds.
Warning: Simulation tolerance relaxed to achieve convergence from 1.2581119333333294e-03 to 1.2581119333333393e-03 seconds.
Warning: Simulation tolerance relaxed to achieve convergence from 1.2681119333333294e-03 to 1.2681119333333394e-03 seconds.
Warning: Simulation tolerance relaxed to achieve convergence from 1.2781119333333294e-03 to 1.2781119333333394e-03 seconds.
Warning: Simulation tolerance relaxed to achieve convergence from 1.2881119333333294e-03 to 1.2881119333333394e-03 seconds.
Warning: Simulation tolerance relaxed to achieve convergence from 1.2981119333333295e-03 to 1.2981119333333394e-03 seconds.
Warning: Simulation tolerance relaxed to achieve convergence from 1.3081119333333295e-03 to 1.3081119333333395e-03 seconds.
Warning: Simulation tolerance relaxed to achieve convergence from 1.3181119333333295e-03 to 1.3181119333333395e-03 seconds.
Warning: Simulation tolerance relaxed to achieve convergence from 1.3281119333333296e-03 to 1.3281119333333395e-03 seconds.
Warning: Simulation tolerance relaxed to achieve convergence from 1.3381119333333294e-03 to 1.3381119333333393e-03 seconds.
Warning: Simulation tolerance relaxed to achieve convergence from 1.3481119333333294e-03 to 1.3481119333333394e-03 seconds.
Warning: Simulation tolerance relaxed to achieve convergence from 1.3581119333333294e-03 to 1.3581119333333394e-03 seconds.
Warning: Simulation tolerance relaxed to achieve convergence from 1.3681119333333294e-03 to 1.3681119333333394e-03 seconds.
Warning: Simulation tolerance relaxed to achieve convergence from 1.3781119333333295e-03 to 1.3781119333333394e-03 seconds.
Warning: Simulation tolerance relaxed to achieve convergence from 1.3881119333333295e-03 to 1.3881119333333395e-03 seconds.
Warning: Simulation tolerance relaxed to achieve convergence from 1.3981119333333295e-03 to 1.3981119333333395e-03 seconds.
Warning: Simulation tolerance relaxed to achieve convergence from 1.4081119333333293e-03 to 1.4081119333333393e-03 seconds.
Warning: Simulation tolerance relaxed to achieve convergence from 1.4181119333333294e-03 to 1.4181119333333393e-03 seconds.
Warning: Simulation tolerance relaxed to achieve convergence from 1.4281119333333294e-03 to 1.4281119333333394e-03 seconds.
Warning: Simulation tolerance relaxed to achieve convergence from 1.4381119333333294e-03 to 1.4381119333333394e-03 seconds.
Warning: Simulation tolerance relaxed to achieve convergence from 1.4481119333333294e-03 to 1.4481119333333394e-03 seconds.
Warning: Simulation tolerance relaxed to achieve convergence from 1.4581119333333295e-03 to 1.4581119333333394e-03 seconds.
Warning: Simulation tolerance relaxed to achieve convergence from 1.4681119333333295e-03 to 1.4681119333333395e-03 seconds.
Warning: Simulation tolerance relaxed to achieve convergence from 1.4781119333333295e-03 to 1.4781119333333395e-03 seconds.
Warning: Simulation tolerance relaxed to achieve convergence from 1.4881119333333295e-03 to 1.4881119333333395e-03 seconds.
Warning: Simulation tolerance relaxed to achieve convergence from 1.4981119333333293e-03 to 1.4981119333333393e-03 seconds.
Warning: Simulation tolerance relaxed to achieve convergence from 1.5081119333333294e-03 to 1.5081119333333393e-03 seconds.
Warning: Simulation tolerance relaxed to achieve convergence from 1.5181119333333294e-03 to 1.5181119333333394e-03 seconds.
Warning: Simulation tolerance relaxed to achieve convergence from 1.5281119333333294e-03 to 1.5281119333333394e-03 seconds.
Warning: Simulation tolerance relaxed to achieve convergence from 1.5381119333333295e-03 to 1.5381119333333394e-03 seconds.
Warning: Simulation tolerance relaxed to achieve convergence from 1.5481119333333295e-03 to 1.5481119333333395e-03 seconds.
Warning: Simulation tolerance relaxed to achieve convergence from 1.5581119333333295e-03 to 1.5581119333333395e-03 seconds.
Warning: Simulation tolerance relaxed to achieve convergence from 1.5681119333333293e-03 to 1.5681119333333393e-03 seconds.
Warning: Simulation tolerance relaxed to achieve convergence from 1.5781119333333293e-03 to 1.5781119333333393e-03 seconds.
Warning: Simulation tolerance relaxed to achieve convergence from 1.5881119333333294e-03 to 1.5881119333333393e-03 seconds.
Warning: Simulation tolerance relaxed to achieve convergence from 1.5981119333333294e-03 to 1.5981119333333394e-03 seconds.
Warning: Simulation tolerance relaxed to achieve convergence from 1.6081119333333294e-03 to 1.6081119333333394e-03 seconds.
Warning: Simulation tolerance relaxed to achieve convergence from 1.6181119333333294e-03 to 1.6181119333333394e-03 seconds.
Warning: Simulation tolerance relaxed to achieve convergence from 1.6281119333333295e-03 to 1.6281119333333394e-03 seconds.
Warning: Simulation tolerance relaxed to achieve convergence from 1.6381119333333295e-03 to 1.6381119333333395e-03 seconds.
Warning: Simulation tolerance relaxed to achieve convergence from 1.6481119333333295e-03 to 1.6481119333333395e-03 seconds.
Warning: Simulation tolerance relaxed to achieve convergence from 1.6581119333333293e-03 to 1.6581119333333393e-03 seconds.
Warning: Simulation tolerance relaxed to achieve convergence from 1.6681119333333294e-03 to 1.6681119333333393e-03 seconds.
Warning: Simulation tolerance relaxed to achieve convergence from 1.6781119333333294e-03 to 1.6781119333333394e-03 seconds.
Warning: Simulation tolerance relaxed to achieve convergence from 1.6881119333333294e-03 to 1.6881119333333394e-03 seconds.
Warning: Simulation tolerance relaxed to achieve convergence from 1.6981119333333294e-03 to 1.6981119333333394e-03 seconds.
Warning: Simulation tolerance relaxed to achieve convergence from 1.7081119333333295e-03 to 1.7081119333333394e-03 seconds.
Warning: Simulation tolerance relaxed to achieve convergence from 1.7181119333333295e-03 to 1.7181119333333395e-03 seconds.
Warning: Simulation tolerance relaxed to achieve convergence from 1.7281119333333293e-03 to 1.7281119333333393e-03 seconds.
Warning: Simulation tolerance relaxed to achieve convergence from 1.7381119333333293e-03 to 1.7381119333333393e-03 seconds.
Warning: Simulation tolerance relaxed to achieve convergence from 1.7481119333333294e-03 to 1.7481119333333393e-03 seconds.
Warning: Simulation tolerance relaxed to achieve convergence from 1.7581119333333294e-03 to 1.7581119333333394e-03 seconds.
Warning: Simulation tolerance relaxed to achieve convergence from 1.7681119333333294e-03 to 1.7681119333333394e-03 seconds.
Warning: Simulation tolerance relaxed to achieve convergence from 1.7781119333333294e-03 to 1.7781119333333394e-03 seconds.
Warning: Simulation tolerance relaxed to achieve convergence from 1.7881119333333295e-03 to 1.7881119333333394e-03 seconds.
Warning: Simulation tolerance relaxed to achieve convergence from 1.7981119333333295e-03 to 1.7981119333333395e-03 seconds.
Warning: Simulation tolerance relaxed to achieve convergence from 1.8081119333333295e-03 to 1.8081119333333395e-03 seconds.
Warning: Simulation tolerance relaxed to achieve convergence from 1.8181119333333293e-03 to 1.8181119333333393e-03 seconds.
Warning: Simulation tolerance relaxed to achieve convergence from 1.8281119333333293e-03 to 1.8281119333333393e-03 seconds.
Warning: Simulation tolerance relaxed to achieve convergence from 1.8381119333333294e-03 to 1.8381119333333393e-03 seconds.
Warning: Simulation tolerance relaxed to achieve convergence from 1.8481119333333294e-03 to 1.8481119333333394e-03 seconds.
Warning: Simulation tolerance relaxed to achieve convergence from 1.8581119333333294e-03 to 1.8581119333333394e-03 seconds.
Warning: Simulation tolerance relaxed to achieve convergence from 1.8681119333333294e-03 to 1.8681119333333394e-03 seconds.
Warning: Simulation tolerance relaxed to achieve convergence from 1.8781119333333295e-03 to 1.8781119333333395e-03 seconds.
Warning: Simulation tolerance relaxed to achieve convergence from 1.8881119333333293e-03 to 1.8881119333333393e-03 seconds.
Warning: Simulation tolerance relaxed to achieve convergence from 1.8981119333333293e-03 to 1.8981119333333393e-03 seconds.
Warning: Simulation tolerance relaxed to achieve convergence from 1.9081119333333293e-03 to 1.9081119333333393e-03 seconds.
Warning: Simulation tolerance relaxed to achieve convergence from 1.9181119333333294e-03 to 1.9181119333333393e-03 seconds.
Warning: Simulation tolerance relaxed to achieve convergence from 1.9281119333333294e-03 to 1.9281119333333394e-03 seconds.
Warning: Simulation tolerance relaxed to achieve convergence from 1.9381119333333294e-03 to 1.9381119333333394e-03 seconds.
Warning: Simulation tolerance relaxed to achieve convergence from 1.9481119333333294e-03 to 1.9481119333333394e-03 seconds.
Warning: Simulation tolerance relaxed to achieve convergence from 1.9581119333333288e-03 to 1.9581119333333388e-03 seconds.
Warning: Simulation tolerance relaxed to achieve convergence from 1.9681119333333293e-03 to 1.9681119333333393e-03 seconds.
Warning: Simulation tolerance relaxed to achieve convergence from 1.9781119333333289e-03 to 1.9781119333333388e-03 seconds.
Warning: Simulation tolerance relaxed to achieve convergence from 1.9881119333333293e-03 to 1.9881119333333393e-03 seconds.
Warning: Simulation tolerance relaxed to achieve convergence from 1.9981119333333289e-03 to 1.9981119333333389e-03 seconds.
Warning: Simulation tolerance relaxed to achieve convergence from 2.0081119333333294e-03 to 2.0081119333333394e-03 seconds.
Warning: Simulation tolerance relaxed to achieve convergence from 2.0181119333333290e-03 to 2.0181119333333390e-03 seconds.
Warning: Simulation tolerance relaxed to achieve convergence from 2.0281119333333286e-03 to 2.0281119333333385e-03 seconds.
Warning: Simulation tolerance relaxed to achieve convergence from 2.0381119333333290e-03 to 2.0381119333333390e-03 seconds.
Warning: Simulation tolerance relaxed to achieve convergence from 2.0481119333333286e-03 to 2.0481119333333386e-03 seconds.
Warning: Simulation tolerance relaxed to achieve convergence from 2.0581119333333291e-03 to 2.0581119333333391e-03 seconds.
Warning: Simulation tolerance relaxed to achieve convergence from 2.0681119333333287e-03 to 2.0681119333333386e-03 seconds.
Warning: Simulation tolerance relaxed to achieve convergence from 2.0781119333333291e-03 to 2.0781119333333391e-03 seconds.
Warning: Simulation tolerance relaxed to achieve convergence from 2.0881119333333287e-03 to 2.0881119333333387e-03 seconds.
Warning: Simulation tolerance relaxed to achieve convergence from 2.0981119333333292e-03 to 2.0981119333333392e-03 seconds.
Warning: Simulation tolerance relaxed to achieve convergence from 2.1081119333333288e-03 to 2.1081119333333388e-03 seconds.
Warning: Simulation tolerance relaxed to achieve convergence from 2.1181119333333292e-03 to 2.1181119333333392e-03 seconds.
Warning: Simulation tolerance relaxed to achieve convergence from 2.1281119333333288e-03 to 2.1281119333333388e-03 seconds.
Warning: Simulation tolerance relaxed to achieve convergence from 2.1381119333333293e-03 to 2.1381119333333393e-03 seconds.
Warning: Simulation tolerance relaxed to achieve convergence from 2.1481119333333289e-03 to 2.1481119333333389e-03 seconds.
Warning: Simulation tolerance relaxed to achieve convergence from 2.1581119333333293e-03 to 2.1581119333333393e-03 seconds.
Warning: Simulation tolerance relaxed to achieve convergence from 2.1681119333333289e-03 to 2.1681119333333389e-03 seconds.
Warning: Simulation tolerance relaxed to achieve convergence from 2.1781119333333285e-03 to 2.1781119333333385e-03 seconds.
Warning: Simulation tolerance relaxed to achieve convergence from 2.1881119333333290e-03 to 2.1881119333333390e-03 seconds.
Warning: Simulation tolerance relaxed to achieve convergence from 2.1981119333333286e-03 to 2.1981119333333386e-03 seconds.
Warning: Simulation tolerance relaxed to achieve convergence from 2.2081119333333290e-03 to 2.2081119333333390e-03 seconds.
Warning: Simulation tolerance relaxed to achieve convergence from 2.2181119333333286e-03 to 2.2181119333333386e-03 seconds.
Warning: Simulation tolerance relaxed to achieve convergence from 2.2281119333333291e-03 to 2.2281119333333391e-03 seconds.
Warning: Simulation tolerance relaxed to achieve convergence from 2.2381119333333287e-03 to 2.2381119333333387e-03 seconds.
Warning: Simulation tolerance relaxed to achieve convergence from 2.2481119333333291e-03 to 2.2481119333333391e-03 seconds.
Warning: Simulation tolerance relaxed to achieve convergence from 2.2581119333333287e-03 to 2.2581119333333387e-03 seconds.
Warning: Simulation tolerance relaxed to achieve convergence from 2.2681119333333292e-03 to 2.2681119333333392e-03 seconds.
Warning: Simulation tolerance relaxed to achieve convergence from 2.2781119333333288e-03 to 2.2781119333333388e-03 seconds.
Warning: Simulation tolerance relaxed to achieve convergence from 2.2881119333333293e-03 to 2.2881119333333392e-03 seconds.
Warning: Simulation tolerance relaxed to achieve convergence from 2.2981119333333288e-03 to 2.2981119333333388e-03 seconds.
Warning: Simulation tolerance relaxed to achieve convergence from 2.3081119333333293e-03 to 2.3081119333333393e-03 seconds.
Warning: Simulation tolerance relaxed to achieve convergence from 2.3181119333333289e-03 to 2.3181119333333389e-03 seconds.
Warning: Simulation tolerance relaxed to achieve convergence from 2.3281119333333294e-03 to 2.3281119333333393e-03 seconds.
Warning: Simulation tolerance relaxed to achieve convergence from 2.3381119333333289e-03 to 2.3381119333333389e-03 seconds.
Warning: Simulation tolerance relaxed to achieve convergence from 2.3481119333333285e-03 to 2.3481119333333385e-03 seconds.
Warning: Simulation tolerance relaxed to achieve convergence from 2.3581119333333290e-03 to 2.3581119333333390e-03 seconds.
Warning: Simulation tolerance relaxed to achieve convergence from 2.3681119333333286e-03 to 2.3681119333333386e-03 seconds.
Warning: Simulation tolerance relaxed to achieve convergence from 2.3781119333333291e-03 to 2.3781119333333390e-03 seconds.
Warning: Simulation tolerance relaxed to achieve convergence from 2.3881119333333286e-03 to 2.3881119333333386e-03 seconds.
Warning: Simulation tolerance relaxed to achieve convergence from 2.3981119333333291e-03 to 2.3981119333333391e-03 seconds.
Warning: Simulation tolerance relaxed to achieve convergence from 2.4081119333333287e-03 to 2.4081119333333387e-03 seconds.
Warning: Simulation tolerance relaxed to achieve convergence from 2.4181119333333292e-03 to 2.4181119333333391e-03 seconds.
Warning: Simulation tolerance relaxed to achieve convergence from 2.4281119333333288e-03 to 2.4281119333333387e-03 seconds.
Warning: Simulation tolerance relaxed to achieve convergence from 2.4381119333333292e-03 to 2.4381119333333392e-03 seconds.
Warning: Simulation tolerance relaxed to achieve convergence from 2.4481119333333288e-03 to 2.4481119333333388e-03 seconds.
Warning: Simulation tolerance relaxed to achieve convergence from 2.4581119333333293e-03 to 2.4581119333333392e-03 seconds.
Warning: Simulation tolerance relaxed to achieve convergence from 2.4681119333333289e-03 to 2.4681119333333388e-03 seconds.
Warning: Simulation tolerance relaxed to achieve convergence from 2.4781119333333293e-03 to 2.4781119333333393e-03 seconds.
Warning: Simulation tolerance relaxed to achieve convergence from 2.4881119333333289e-03 to 2.4881119333333389e-03 seconds.
Warning: Simulation tolerance relaxed to achieve convergence from 2.4981119333333285e-03 to 2.4981119333333385e-03 seconds.
Warning: Simulation tolerance relaxed to achieve convergence from 2.5081119333333290e-03 to 2.5081119333333389e-03 seconds.
Warning: Simulation tolerance relaxed to achieve convergence from 2.5181119333333286e-03 to 2.5181119333333385e-03 seconds.
Warning: Simulation tolerance relaxed to achieve convergence from 2.5281119333333290e-03 to 2.5281119333333390e-03 seconds.
Warning: Simulation tolerance relaxed to achieve convergence from 2.5381119333333286e-03 to 2.5381119333333386e-03 seconds.
Warning: Simulation tolerance relaxed to achieve convergence from 2.5481119333333291e-03 to 2.5481119333333390e-03 seconds.
Warning: Simulation tolerance relaxed to achieve convergence from 2.5581119333333287e-03 to 2.5581119333333386e-03 seconds.
Warning: Simulation tolerance relaxed to achieve convergence from 2.5681119333333291e-03 to 2.5681119333333391e-03 seconds.
Warning: Simulation tolerance relaxed to achieve convergence from 2.5781119333333287e-03 to 2.5781119333333387e-03 seconds.
Warning: Simulation tolerance relaxed to achieve convergence from 2.5881119333333292e-03 to 2.5881119333333391e-03 seconds.
Warning: Simulation tolerance relaxed to achieve convergence from 2.5981119333333288e-03 to 2.5981119333333387e-03 seconds.
Warning: Simulation tolerance relaxed to achieve convergence from 2.6081119333333292e-03 to 2.6081119333333392e-03 seconds.
Warning: Simulation tolerance relaxed to achieve convergence from 2.6181119333333288e-03 to 2.6181119333333388e-03 seconds.
Warning: Simulation tolerance relaxed to achieve convergence from 2.6281119333333293e-03 to 2.6281119333333392e-03 seconds.
Warning: Simulation tolerance relaxed to achieve convergence from 2.6381119333333289e-03 to 2.6381119333333388e-03 seconds.
Warning: Simulation tolerance relaxed to achieve convergence from 2.6481119333333293e-03 to 2.6481119333333393e-03 seconds.
Warning: Simulation tolerance relaxed to achieve convergence from 2.6581119333333289e-03 to 2.6581119333333389e-03 seconds.
Warning: Simulation tolerance relaxed to achieve convergence from 2.6681119333333285e-03 to 2.6681119333333385e-03 seconds.
Warning: Simulation tolerance relaxed to achieve convergence from 2.6781119333333290e-03 to 2.6781119333333389e-03 seconds.
Warning: Simulation tolerance relaxed to achieve convergence from 2.6881119333333286e-03 to 2.6881119333333385e-03 seconds.
Warning: Simulation tolerance relaxed to achieve convergence from 2.6981119333333290e-03 to 2.6981119333333390e-03 seconds.
Warning: Simulation tolerance relaxed to achieve convergence from 2.7081119333333286e-03 to 2.7081119333333386e-03 seconds.
Warning: Simulation tolerance relaxed to achieve convergence from 2.7181119333333291e-03 to 2.7181119333333391e-03 seconds.
Warning: Simulation tolerance relaxed to achieve convergence from 2.7281119333333287e-03 to 2.7281119333333386e-03 seconds.
Warning: Simulation tolerance relaxed to achieve convergence from 2.7381119333333291e-03 to 2.7381119333333391e-03 seconds.
Warning: Simulation tolerance relaxed to achieve convergence from 2.7481119333333287e-03 to 2.7481119333333387e-03 seconds.
Warning: Simulation tolerance relaxed to achieve convergence from 2.7581119333333292e-03 to 2.7581119333333392e-03 seconds.
Warning: Simulation tolerance relaxed to achieve convergence from 2.7681119333333288e-03 to 2.7681119333333387e-03 seconds.
Warning: Simulation tolerance relaxed to achieve convergence from 2.7781119333333292e-03 to 2.7781119333333392e-03 seconds.
Warning: Simulation tolerance relaxed to achieve convergence from 2.7881119333333288e-03 to 2.7881119333333388e-03 seconds.
Warning: Simulation tolerance relaxed to achieve convergence from 2.7981119333333293e-03 to 2.7981119333333393e-03 seconds.
Warning: Simulation tolerance relaxed to achieve convergence from 2.8081119333333289e-03 to 2.8081119333333389e-03 seconds.
Warning: Simulation tolerance relaxed to achieve convergence from 2.8181119333333285e-03 to 2.8181119333333384e-03 seconds.
Warning: Simulation tolerance relaxed to achieve convergence from 2.8281119333333289e-03 to 2.8281119333333389e-03 seconds.
Warning: Simulation tolerance relaxed to achieve convergence from 2.8381119333333285e-03 to 2.8381119333333385e-03 seconds.
Warning: Simulation tolerance relaxed to achieve convergence from 2.8481119333333290e-03 to 2.8481119333333390e-03 seconds.
Warning: Simulation tolerance relaxed to achieve convergence from 2.8581119333333286e-03 to 2.8581119333333386e-03 seconds.
Warning: Simulation tolerance relaxed to achieve convergence from 2.8681119333333290e-03 to 2.8681119333333390e-03 seconds.
Warning: Simulation tolerance relaxed to achieve convergence from 2.8781119333333286e-03 to 2.8781119333333386e-03 seconds.
Warning: Simulation tolerance relaxed to achieve convergence from 2.8881119333333291e-03 to 2.8881119333333391e-03 seconds.
Warning: Simulation tolerance relaxed to achieve convergence from 2.8981119333333287e-03 to 2.8981119333333387e-03 seconds.
Warning: Simulation tolerance relaxed to achieve convergence from 2.9081119333333291e-03 to 2.9081119333333391e-03 seconds.
Warning: Simulation tolerance relaxed to achieve convergence from 2.9181119333333287e-03 to 2.9181119333333387e-03 seconds.
Warning: Simulation tolerance relaxed to achieve convergence from 2.9281119333333292e-03 to 2.9281119333333392e-03 seconds.
Warning: Simulation tolerance relaxed to achieve convergence from 2.9381119333333288e-03 to 2.9381119333333388e-03 seconds.
Warning: Simulation tolerance relaxed to achieve convergence from 2.9481119333333292e-03 to 2.9481119333333392e-03 seconds.
Warning: Simulation tolerance relaxed to achieve convergence from 2.9581119333333288e-03 to 2.9581119333333388e-03 seconds.
Warning: Simulation tolerance relaxed to achieve convergence from 2.9681119333333293e-03 to 2.9681119333333393e-03 seconds.
Warning: Simulation tolerance relaxed to achieve convergence from 2.9781119333333289e-03 to 2.9781119333333389e-03 seconds.
Warning: Simulation tolerance relaxed to achieve convergence from 2.9881119333333285e-03 to 2.9881119333333385e-03 seconds.
Warning: Simulation tolerance relaxed to achieve convergence from 2.9981119333333289e-03 to 2.9981119333333389e-03 seconds.
Warning: Simulation tolerance relaxed to achieve convergence from 3.0081119333333285e-03 to 3.0081119333333385e-03 seconds.
Warning: Simulation tolerance relaxed to achieve convergence from 3.0181119333333290e-03 to 3.0181119333333390e-03 seconds.
Warning: Simulation tolerance relaxed to achieve convergence from 3.0281119333333286e-03 to 3.0281119333333386e-03 seconds.
Warning: Simulation tolerance relaxed to achieve convergence from 3.0381119333333290e-03 to 3.0381119333333390e-03 seconds.
Warning: Simulation tolerance relaxed to achieve convergence from 3.0481119333333286e-03 to 3.0481119333333386e-03 seconds.
Warning: Simulation tolerance relaxed to achieve convergence from 3.0581119333333291e-03 to 3.0581119333333391e-03 seconds.
Warning: Simulation tolerance relaxed to achieve convergence from 3.0681119333333287e-03 to 3.0681119333333387e-03 seconds.
Warning: Simulation tolerance relaxed to achieve convergence from 3.0781119333333292e-03 to 3.0781119333333391e-03 seconds.
Warning: Simulation tolerance relaxed to achieve convergence from 3.0881119333333287e-03 to 3.0881119333333387e-03 seconds.
Warning: Simulation tolerance relaxed to achieve convergence from 3.0981119333333292e-03 to 3.0981119333333392e-03 seconds.
Warning: Simulation tolerance relaxed to achieve convergence from 3.1081119333333288e-03 to 3.1081119333333388e-03 seconds.
Warning: Simulation tolerance relaxed to achieve convergence from 3.1181119333333293e-03 to 3.1181119333333392e-03 seconds.
Warning: Simulation tolerance relaxed to achieve convergence from 3.1281119333333289e-03 to 3.1281119333333388e-03 seconds.
Warning: Simulation tolerance relaxed to achieve convergence from 3.1381119333333284e-03 to 3.1381119333333384e-03 seconds.
Warning: Simulation tolerance relaxed to achieve convergence from 3.1481119333333289e-03 to 3.1481119333333389e-03 seconds.
Warning: Simulation tolerance relaxed to achieve convergence from 3.1581119333333285e-03 to 3.1581119333333385e-03 seconds.
Warning: Simulation tolerance relaxed to achieve convergence from 3.1681119333333290e-03 to 3.1681119333333389e-03 seconds.
Warning: Simulation tolerance relaxed to achieve convergence from 3.1781119333333285e-03 to 3.1781119333333385e-03 seconds.
Warning: Simulation tolerance relaxed to achieve convergence from 3.1881119333333290e-03 to 3.1881119333333390e-03 seconds.
Warning: Simulation tolerance relaxed to achieve convergence from 3.1981119333333286e-03 to 3.1981119333333386e-03 seconds.
Warning: Simulation tolerance relaxed to achieve convergence from 3.2081119333333291e-03 to 3.2081119333333390e-03 seconds.
Warning: Simulation tolerance relaxed to achieve convergence from 3.2181119333333287e-03 to 3.2181119333333386e-03 seconds.
Warning: Simulation tolerance relaxed to achieve convergence from 3.2281119333333291e-03 to 3.2281119333333391e-03 seconds.
Warning: Simulation tolerance relaxed to achieve convergence from 3.2381119333333287e-03 to 3.2381119333333387e-03 seconds.
Warning: Simulation tolerance relaxed to achieve convergence from 3.2481119333333292e-03 to 3.2481119333333391e-03 seconds.
Warning: Simulation tolerance relaxed to achieve convergence from 3.2581119333333288e-03 to 3.2581119333333387e-03 seconds.
Warning: Simulation tolerance relaxed to achieve convergence from 3.2681119333333292e-03 to 3.2681119333333392e-03 seconds.
Warning: Simulation tolerance relaxed to achieve convergence from 3.2781119333333288e-03 to 3.2781119333333388e-03 seconds.
Warning: Simulation tolerance relaxed to achieve convergence from 3.2881119333333293e-03 to 3.2881119333333392e-03 seconds.
Warning: Simulation tolerance relaxed to achieve convergence from 3.2981119333333289e-03 to 3.2981119333333388e-03 seconds.
Warning: Simulation tolerance relaxed to achieve convergence from 3.3081119333333285e-03 to 3.3081119333333384e-03 seconds.
Warning: Simulation tolerance relaxed to achieve convergence from 3.3181119333333289e-03 to 3.3181119333333389e-03 seconds.
Warning: Simulation tolerance relaxed to achieve convergence from 3.3281119333333285e-03 to 3.3281119333333385e-03 seconds.
Warning: Simulation tolerance relaxed to achieve convergence from 3.3381119333333290e-03 to 3.3381119333333389e-03 seconds.
Warning: Simulation tolerance relaxed to achieve convergence from 3.3481119333333286e-03 to 3.3481119333333385e-03 seconds.
Warning: Simulation tolerance relaxed to achieve convergence from 3.3581119333333290e-03 to 3.3581119333333390e-03 seconds.
Warning: Simulation tolerance relaxed to achieve convergence from 3.3681119333333286e-03 to 3.3681119333333386e-03 seconds.
Warning: Simulation tolerance relaxed to achieve convergence from 3.3781119333333291e-03 to 3.3781119333333390e-03 seconds.
Warning: Simulation tolerance relaxed to achieve convergence from 3.3881119333333287e-03 to 3.3881119333333386e-03 seconds.
Warning: Simulation tolerance relaxed to achieve convergence from 3.3981119333333291e-03 to 3.3981119333333391e-03 seconds.
Warning: Simulation tolerance relaxed to achieve convergence from 3.4081119333333287e-03 to 3.4081119333333387e-03 seconds.
Warning: Simulation tolerance relaxed to achieve convergence from 3.4181119333333292e-03 to 3.4181119333333392e-03 seconds.
Warning: Simulation tolerance relaxed to achieve convergence from 3.4281119333333288e-03 to 3.4281119333333387e-03 seconds.
Warning: Simulation tolerance relaxed to achieve convergence from 3.4381119333333292e-03 to 3.4381119333333392e-03 seconds.
Warning: Simulation tolerance relaxed to achieve convergence from 3.4481119333333288e-03 to 3.4481119333333388e-03 seconds.
Warning: Simulation tolerance relaxed to achieve convergence from 3.4581119333333284e-03 to 3.4581119333333384e-03 seconds.
Warning: Simulation tolerance relaxed to achieve convergence from 3.4681119333333289e-03 to 3.4681119333333389e-03 seconds.
Warning: Simulation tolerance relaxed to achieve convergence from 3.4781119333333285e-03 to 3.4781119333333384e-03 seconds.
Warning: Simulation tolerance relaxed to achieve convergence from 3.4881119333333289e-03 to 3.4881119333333389e-03 seconds.
Warning: Simulation tolerance relaxed to achieve convergence from 3.4981119333333285e-03 to 3.4981119333333385e-03 seconds.
Warning: Simulation tolerance relaxed to achieve convergence from 3.5081119333333290e-03 to 3.5081119333333390e-03 seconds.
Warning: Simulation tolerance relaxed to achieve convergence from 3.5181119333333286e-03 to 3.5181119333333385e-03 seconds.
Warning: Simulation tolerance relaxed to achieve convergence from 3.5281119333333290e-03 to 3.5281119333333390e-03 seconds.
Warning: Simulation tolerance relaxed to achieve convergence from 3.5381119333333286e-03 to 3.5381119333333386e-03 seconds.
Warning: Simulation tolerance relaxed to achieve convergence from 3.5481119333333291e-03 to 3.5481119333333391e-03 seconds.
Warning: Simulation tolerance relaxed to achieve convergence from 3.5581119333333287e-03 to 3.5581119333333387e-03 seconds.
Warning: Simulation tolerance relaxed to achieve convergence from 3.5681119333333291e-03 to 3.5681119333333391e-03 seconds.
Warning: Simulation tolerance relaxed to achieve convergence from 3.5781119333333287e-03 to 3.5781119333333387e-03 seconds.
Warning: Simulation tolerance relaxed to achieve convergence from 3.5881119333333292e-03 to 3.5881119333333392e-03 seconds.
Warning: Simulation tolerance relaxed to achieve convergence from 3.5981119333333288e-03 to 3.5981119333333388e-03 seconds.
Warning: Simulation tolerance relaxed to achieve convergence from 3.6081119333333292e-03 to 3.6081119333333392e-03 seconds.
Warning: Simulation tolerance relaxed to achieve convergence from 3.6181119333333288e-03 to 3.6181119333333388e-03 seconds.
Warning: Simulation tolerance relaxed to achieve convergence from 3.6281119333333284e-03 to 3.6281119333333384e-03 seconds.
Warning: Simulation tolerance relaxed to achieve convergence from 3.6381119333333289e-03 to 3.6381119333333389e-03 seconds.
Warning: Simulation tolerance relaxed to achieve convergence from 3.6481119333333285e-03 to 3.6481119333333385e-03 seconds.
Warning: Simulation tolerance relaxed to achieve convergence from 3.6581119333333289e-03 to 3.6581119333333389e-03 seconds.
Warning: Simulation tolerance relaxed to achieve convergence from 3.6681119333333285e-03 to 3.6681119333333385e-03 seconds.
Warning: Simulation tolerance relaxed to achieve convergence from 3.6781119333333290e-03 to 3.6781119333333390e-03 seconds.
Warning: Simulation tolerance relaxed to achieve convergence from 3.6881119333333286e-03 to 3.6881119333333386e-03 seconds.
Warning: Simulation tolerance relaxed to achieve convergence from 3.6981119333333290e-03 to 3.6981119333333390e-03 seconds.
Warning: Simulation tolerance relaxed to achieve convergence from 3.7081119333333286e-03 to 3.7081119333333386e-03 seconds.
Warning: Simulation tolerance relaxed to achieve convergence from 3.7181119333333291e-03 to 3.7181119333333391e-03 seconds.
Warning: Simulation tolerance relaxed to achieve convergence from 3.7281119333333287e-03 to 3.7281119333333387e-03 seconds.
Warning: Simulation tolerance relaxed to achieve convergence from 3.7381119333333292e-03 to 3.7381119333333391e-03 seconds.
Warning: Simulation tolerance relaxed to achieve convergence from 3.7481119333333287e-03 to 3.7481119333333387e-03 seconds.
Warning: Simulation tolerance relaxed to achieve convergence from 3.7581119333333292e-03 to 3.7581119333333392e-03 seconds.
Warning: Simulation tolerance relaxed to achieve convergence from 3.7681119333333288e-03 to 3.7681119333333388e-03 seconds.
Warning: Simulation tolerance relaxed to achieve convergence from 3.7781119333333284e-03 to 3.7781119333333384e-03 seconds.
Warning: Simulation tolerance relaxed to achieve convergence from 3.7881119333333288e-03 to 3.7881119333333388e-03 seconds.
Warning: Simulation tolerance relaxed to achieve convergence from 3.7981119333333284e-03 to 3.7981119333333384e-03 seconds.
Warning: Simulation tolerance relaxed to achieve convergence from 3.8081119333333289e-03 to 3.8081119333333389e-03 seconds.
Warning: Simulation tolerance relaxed to achieve convergence from 3.8181119333333285e-03 to 3.8181119333333385e-03 seconds.
Warning: Simulation tolerance relaxed to achieve convergence from 3.8281119333333290e-03 to 3.8281119333333389e-03 seconds.
Warning: Simulation tolerance relaxed to achieve convergence from 3.8381119333333285e-03 to 3.8381119333333385e-03 seconds.
Warning: Simulation tolerance relaxed to achieve convergence from 3.8481119333333290e-03 to 3.8481119333333390e-03 seconds.
Warning: Simulation tolerance relaxed to achieve convergence from 3.8581119333333286e-03 to 3.8581119333333386e-03 seconds.
Warning: Simulation tolerance relaxed to achieve convergence from 3.8681119333333291e-03 to 3.8681119333333390e-03 seconds.
Warning: Simulation tolerance relaxed to achieve convergence from 3.8781119333333287e-03 to 3.8781119333333386e-03 seconds.
Warning: Simulation tolerance relaxed to achieve convergence from 3.8881119333333291e-03 to 3.8881119333333391e-03 seconds.
Warning: Simulation tolerance relaxed to achieve convergence from 3.8981119333333287e-03 to 3.8981119333333387e-03 seconds.
Warning: Simulation tolerance relaxed to achieve convergence from 3.9081119333333287e-03 to 3.9081119333333391e-03 seconds.
Warning: Simulation tolerance relaxed to achieve convergence from 3.9181119333333301e-03 to 3.9181119333333405e-03 seconds.
Warning: Simulation tolerance relaxed to achieve convergence from 3.9281119333333296e-03 to 3.9281119333333401e-03 seconds.
Warning: Simulation tolerance relaxed to achieve convergence from 3.9381119333333292e-03 to 3.9381119333333396e-03 seconds.
Warning: Simulation tolerance relaxed to achieve convergence from 3.9481119333333306e-03 to 3.9481119333333410e-03 seconds.
Warning: Simulation tolerance relaxed to achieve convergence from 3.9581119333333302e-03 to 3.9581119333333406e-03 seconds.
Warning: Simulation tolerance relaxed to achieve convergence from 3.9681119333333298e-03 to 3.9681119333333402e-03 seconds.
Warning: Simulation tolerance relaxed to achieve convergence from 3.9781119333333293e-03 to 3.9781119333333398e-03 seconds.
Warning: Simulation tolerance relaxed to achieve convergence from 3.9881119333333307e-03 to 3.9881119333333411e-03 seconds.
Warning: Simulation tolerance relaxed to achieve convergence from 3.9981119333333303e-03 to 3.9981119333333407e-03 seconds.
Warning: Simulation tolerance relaxed to achieve convergence from 4.0081119333333299e-03 to 4.0081119333333403e-03 seconds.
Warning: Simulation tolerance relaxed to achieve convergence from 4.0181119333333295e-03 to 4.0181119333333399e-03 seconds.
Warning: Simulation tolerance relaxed to achieve convergence from 4.0281119333333290e-03 to 4.0281119333333395e-03 seconds.
Warning: Simulation tolerance relaxed to achieve convergence from 4.0381119333333304e-03 to 4.0381119333333408e-03 seconds.
Warning: Simulation tolerance relaxed to achieve convergence from 4.0481119333333300e-03 to 4.0481119333333404e-03 seconds.
Warning: Simulation tolerance relaxed to achieve convergence from 4.0581119333333296e-03 to 4.0581119333333400e-03 seconds.
Warning: Simulation tolerance relaxed to achieve convergence from 4.0681119333333291e-03 to 4.0681119333333396e-03 seconds.
Warning: Simulation tolerance relaxed to achieve convergence from 4.0781119333333305e-03 to 4.0781119333333409e-03 seconds.
Warning: Simulation tolerance relaxed to achieve convergence from 4.0881119333333301e-03 to 4.0881119333333405e-03 seconds.
Warning: Simulation tolerance relaxed to achieve convergence from 4.0981119333333297e-03 to 4.0981119333333401e-03 seconds.
Warning: Simulation tolerance relaxed to achieve convergence from 4.1081119333333293e-03 to 4.1081119333333397e-03 seconds.
Warning: Simulation tolerance relaxed to achieve convergence from 4.1181119333333306e-03 to 4.1181119333333410e-03 seconds.
Warning: Simulation tolerance relaxed to achieve convergence from 4.1281119333333302e-03 to 4.1281119333333406e-03 seconds.
Warning: Simulation tolerance relaxed to achieve convergence from 4.1381119333333298e-03 to 4.1381119333333402e-03 seconds.
Warning: Simulation tolerance relaxed to achieve convergence from 4.1481119333333294e-03 to 4.1481119333333398e-03 seconds.
Warning: Simulation tolerance relaxed to achieve convergence from 4.1581119333333307e-03 to 4.1581119333333411e-03 seconds.
Warning: Simulation tolerance relaxed to achieve convergence from 4.1681119333333303e-03 to 4.1681119333333407e-03 seconds.
Warning: Simulation tolerance relaxed to achieve convergence from 4.1781119333333299e-03 to 4.1781119333333403e-03 seconds.
Warning: Simulation tolerance relaxed to achieve convergence from 4.1881119333333295e-03 to 4.1881119333333399e-03 seconds.
Warning: Simulation tolerance relaxed to achieve convergence from 4.1981119333333291e-03 to 4.1981119333333395e-03 seconds.
Warning: Simulation tolerance relaxed to achieve convergence from 4.2081119333333304e-03 to 4.2081119333333408e-03 seconds.
Warning: Simulation tolerance relaxed to achieve convergence from 4.2181119333333300e-03 to 4.2181119333333404e-03 seconds.
Warning: Simulation tolerance relaxed to achieve convergence from 4.2281119333333296e-03 to 4.2281119333333400e-03 seconds.
Warning: Simulation tolerance relaxed to achieve convergence from 4.2381119333333292e-03 to 4.2381119333333396e-03 seconds.
Warning: Simulation tolerance relaxed to achieve convergence from 4.2481119333333305e-03 to 4.2481119333333409e-03 seconds.
Warning: Simulation tolerance relaxed to achieve convergence from 4.2581119333333301e-03 to 4.2581119333333405e-03 seconds.
Warning: Simulation tolerance relaxed to achieve convergence from 4.2681119333333297e-03 to 4.2681119333333401e-03 seconds.
Warning: Simulation tolerance relaxed to achieve convergence from 4.2781119333333293e-03 to 4.2781119333333397e-03 seconds.
Warning: Simulation tolerance relaxed to achieve convergence from 4.2881119333333306e-03 to 4.2881119333333410e-03 seconds.
Warning: Simulation tolerance relaxed to achieve convergence from 4.2981119333333302e-03 to 4.2981119333333406e-03 seconds.
Warning: Simulation tolerance relaxed to achieve convergence from 4.3081119333333298e-03 to 4.3081119333333402e-03 seconds.
Warning: Simulation tolerance relaxed to achieve convergence from 4.3181119333333294e-03 to 4.3181119333333398e-03 seconds.
Warning: Simulation tolerance relaxed to achieve convergence from 4.3281119333333290e-03 to 4.3281119333333394e-03 seconds.
Warning: Simulation tolerance relaxed to achieve convergence from 4.3381119333333303e-03 to 4.3381119333333407e-03 seconds.
Warning: Simulation tolerance relaxed to achieve convergence from 4.3481119333333299e-03 to 4.3481119333333403e-03 seconds.
Warning: Simulation tolerance relaxed to achieve convergence from 4.3581119333333295e-03 to 4.3581119333333399e-03 seconds.
Warning: Simulation tolerance relaxed to achieve convergence from 4.3681119333333291e-03 to 4.3681119333333395e-03 seconds.
Warning: Simulation tolerance relaxed to achieve convergence from 4.3781119333333304e-03 to 4.3781119333333408e-03 seconds.
Warning: Simulation tolerance relaxed to achieve convergence from 4.3881119333333300e-03 to 4.3881119333333404e-03 seconds.
Warning: Simulation tolerance relaxed to achieve convergence from 4.3981119333333296e-03 to 4.3981119333333400e-03 seconds.
Warning: Simulation tolerance relaxed to achieve convergence from 4.4081119333333292e-03 to 4.4081119333333396e-03 seconds.
Warning: Simulation tolerance relaxed to achieve convergence from 4.4181119333333305e-03 to 4.4181119333333409e-03 seconds.
Warning: Simulation tolerance relaxed to achieve convergence from 4.4281119333333301e-03 to 4.4281119333333405e-03 seconds.
Warning: Simulation tolerance relaxed to achieve convergence from 4.4381119333333297e-03 to 4.4381119333333401e-03 seconds.
Warning: Simulation tolerance relaxed to achieve convergence from 4.4481119333333293e-03 to 4.4481119333333397e-03 seconds.
Warning: Simulation tolerance relaxed to achieve convergence from 4.4581119333333306e-03 to 4.4581119333333410e-03 seconds.
Warning: Simulation tolerance relaxed to achieve convergence from 4.4681119333333302e-03 to 4.4681119333333406e-03 seconds.
Warning: Simulation tolerance relaxed to achieve convergence from 4.4781119333333298e-03 to 4.4781119333333402e-03 seconds.
Warning: Simulation tolerance relaxed to achieve convergence from 4.4881119333333294e-03 to 4.4881119333333398e-03 seconds.
Warning: Simulation tolerance relaxed to achieve convergence from 4.4981119333333290e-03 to 4.4981119333333394e-03 seconds.
Warning: Simulation tolerance relaxed to achieve convergence from 4.5081119333333303e-03 to 4.5081119333333407e-03 seconds.
Warning: Simulation tolerance relaxed to achieve convergence from 4.5181119333333299e-03 to 4.5181119333333403e-03 seconds.
Warning: Simulation tolerance relaxed to achieve convergence from 4.5281119333333295e-03 to 4.5281119333333399e-03 seconds.
Warning: Simulation tolerance relaxed to achieve convergence from 4.5381119333333291e-03 to 4.5381119333333395e-03 seconds.
Warning: Simulation tolerance relaxed to achieve convergence from 4.5481119333333304e-03 to 4.5481119333333408e-03 seconds.
Warning: Simulation tolerance relaxed to achieve convergence from 4.5581119333333300e-03 to 4.5581119333333404e-03 seconds.
Warning: Simulation tolerance relaxed to achieve convergence from 4.5681119333333296e-03 to 4.5681119333333400e-03 seconds.
Warning: Simulation tolerance relaxed to achieve convergence from 4.5781119333333292e-03 to 4.5781119333333396e-03 seconds.
Warning: Simulation tolerance relaxed to achieve convergence from 4.5881119333333305e-03 to 4.5881119333333409e-03 seconds.
Warning: Simulation tolerance relaxed to achieve convergence from 4.5981119333333301e-03 to 4.5981119333333405e-03 seconds.
Warning: Simulation tolerance relaxed to achieve convergence from 4.6081119333333297e-03 to 4.6081119333333401e-03 seconds.
Warning: Simulation tolerance relaxed to achieve convergence from 4.6181119333333293e-03 to 4.6181119333333397e-03 seconds.
Warning: Simulation tolerance relaxed to achieve convergence from 4.6281119333333306e-03 to 4.6281119333333410e-03 seconds.
Warning: Simulation tolerance relaxed to achieve convergence from 4.6381119333333302e-03 to 4.6381119333333406e-03 seconds.
Warning: Simulation tolerance relaxed to achieve convergence from 4.6481119333333298e-03 to 4.6481119333333402e-03 seconds.
Warning: Simulation tolerance relaxed to achieve convergence from 4.6581119333333294e-03 to 4.6581119333333398e-03 seconds.
Warning: Simulation tolerance relaxed to achieve convergence from 4.6681119333333290e-03 to 4.6681119333333394e-03 seconds.
Warning: Simulation tolerance relaxed to achieve convergence from 4.6781119333333303e-03 to 4.6781119333333407e-03 seconds.
Warning: Simulation tolerance relaxed to achieve convergence from 4.6881119333333299e-03 to 4.6881119333333403e-03 seconds.
Warning: Simulation tolerance relaxed to achieve convergence from 4.6981119333333295e-03 to 4.6981119333333399e-03 seconds.
Warning: Simulation tolerance relaxed to achieve convergence from 4.7081119333333291e-03 to 4.7081119333333395e-03 seconds.
Warning: Simulation tolerance relaxed to achieve convergence from 4.7181119333333304e-03 to 4.7181119333333408e-03 seconds.
Warning: Simulation tolerance relaxed to achieve convergence from 4.7281119333333300e-03 to 4.7281119333333404e-03 seconds.
Warning: Simulation tolerance relaxed to achieve convergence from 4.7381119333333296e-03 to 4.7381119333333400e-03 seconds.
Warning: Simulation tolerance relaxed to achieve convergence from 4.7481119333333292e-03 to 4.7481119333333396e-03 seconds.
Warning: Simulation tolerance relaxed to achieve convergence from 4.7581119333333305e-03 to 4.7581119333333409e-03 seconds.
Warning: Simulation tolerance relaxed to achieve convergence from 4.7681119333333301e-03 to 4.7681119333333405e-03 seconds.
Warning: Simulation tolerance relaxed to achieve convergence from 4.7781119333333297e-03 to 4.7781119333333401e-03 seconds.
Warning: Simulation tolerance relaxed to achieve convergence from 4.7881119333333293e-03 to 4.7881119333333397e-03 seconds.
Warning: Simulation tolerance relaxed to achieve convergence from 4.7981119333333306e-03 to 4.7981119333333410e-03 seconds.
Warning: Simulation tolerance relaxed to achieve convergence from 4.8081119333333302e-03 to 4.8081119333333406e-03 seconds.
Warning: Simulation tolerance relaxed to achieve convergence from 4.8181119333333298e-03 to 4.8181119333333402e-03 seconds.
Warning: Simulation tolerance relaxed to achieve convergence from 4.8281119333333294e-03 to 4.8281119333333398e-03 seconds.
Warning: Simulation tolerance relaxed to achieve convergence from 4.8381119333333290e-03 to 4.8381119333333394e-03 seconds.
Warning: Simulation tolerance relaxed to achieve convergence from 4.8481119333333303e-03 to 4.8481119333333407e-03 seconds.
Warning: Simulation tolerance relaxed to achieve convergence from 4.8581119333333299e-03 to 4.8581119333333403e-03 seconds.
Warning: Simulation tolerance relaxed to achieve convergence from 4.8681119333333295e-03 to 4.8681119333333399e-03 seconds.
Warning: Simulation tolerance relaxed to achieve convergence from 4.8781119333333291e-03 to 4.8781119333333395e-03 seconds.
Warning: Simulation tolerance relaxed to achieve convergence from 4.8881119333333304e-03 to 4.8881119333333408e-03 seconds.
Warning: Simulation tolerance relaxed to achieve convergence from 4.8981119333333300e-03 to 4.8981119333333404e-03 seconds.
Warning: Simulation tolerance relaxed to achieve convergence from 4.9081119333333296e-03 to 4.9081119333333400e-03 seconds.
Warning: Simulation tolerance relaxed to achieve convergence from 4.9181119333333292e-03 to 4.9181119333333396e-03 seconds.
Warning: Simulation tolerance relaxed to achieve convergence from 4.9281119333333305e-03 to 4.9281119333333409e-03 seconds.
Warning: Simulation tolerance relaxed to achieve convergence from 4.9381119333333301e-03 to 4.9381119333333405e-03 seconds.
Warning: Simulation tolerance relaxed to achieve convergence from 4.9481119333333297e-03 to 4.9481119333333401e-03 seconds.
Warning: Simulation tolerance relaxed to achieve convergence from 4.9581119333333293e-03 to 4.9581119333333397e-03 seconds.
Warning: Simulation tolerance relaxed to achieve convergence from 4.9681119333333289e-03 to 4.9681119333333393e-03 seconds.
Warning: Simulation tolerance relaxed to achieve convergence from 4.9781119333333302e-03 to 4.9781119333333406e-03 seconds.
Warning: Simulation tolerance relaxed to achieve convergence from 4.9881119333333298e-03 to 4.9881119333333402e-03 seconds.
Warning: Simulation tolerance relaxed to achieve convergence from 4.9981119333333294e-03 to 4.9981119333333398e-03 seconds.
Warning: Simulation tolerance relaxed to achieve convergence from 5.0081119333333290e-03 to 5.0081119333333394e-03 seconds.
Warning: Simulation tolerance relaxed to achieve convergence from 5.0181119333333303e-03 to 5.0181119333333407e-03 seconds.
Warning: Simulation tolerance relaxed to achieve convergence from 5.0281119333333299e-03 to 5.0281119333333403e-03 seconds.
Warning: Simulation tolerance relaxed to achieve convergence from 5.0381119333333295e-03 to 5.0381119333333399e-03 seconds.
Warning: Simulation tolerance relaxed to achieve convergence from 5.0481119333333291e-03 to 5.0481119333333395e-03 seconds.
Warning: Simulation tolerance relaxed to achieve convergence from 5.0581119333333304e-03 to 5.0581119333333409e-03 seconds.
Warning: Simulation tolerance relaxed to achieve convergence from 5.0681119333333300e-03 to 5.0681119333333404e-03 seconds.
Warning: Simulation tolerance relaxed to achieve convergence from 5.0781119333333296e-03 to 5.0781119333333400e-03 seconds.
Warning: Simulation tolerance relaxed to achieve convergence from 5.0881119333333292e-03 to 5.0881119333333396e-03 seconds.
Warning: Simulation tolerance relaxed to achieve convergence from 5.0981119333333305e-03 to 5.0981119333333410e-03 seconds.
Warning: Simulation tolerance relaxed to achieve convergence from 5.1081119333333301e-03 to 5.1081119333333405e-03 seconds.
Warning: Simulation tolerance relaxed to achieve convergence from 5.1181119333333297e-03 to 5.1181119333333401e-03 seconds.
Warning: Simulation tolerance relaxed to achieve convergence from 5.1281119333333293e-03 to 5.1281119333333397e-03 seconds.
Warning: Simulation tolerance relaxed to achieve convergence from 5.1381119333333289e-03 to 5.1381119333333393e-03 seconds.
Warning: Simulation tolerance relaxed to achieve convergence from 5.1481119333333302e-03 to 5.1481119333333407e-03 seconds.
Warning: Simulation tolerance relaxed to achieve convergence from 5.1581119333333298e-03 to 5.1581119333333402e-03 seconds.
Warning: Simulation tolerance relaxed to achieve convergence from 5.1681119333333294e-03 to 5.1681119333333398e-03 seconds.
Warning: Simulation tolerance relaxed to achieve convergence from 5.1781119333333290e-03 to 5.1781119333333394e-03 seconds.
Warning: Simulation tolerance relaxed to achieve convergence from 5.1881119333333304e-03 to 5.1881119333333408e-03 seconds.
Warning: Simulation tolerance relaxed to achieve convergence from 5.1981119333333299e-03 to 5.1981119333333404e-03 seconds.
Warning: Simulation tolerance relaxed to achieve convergence from 5.2081119333333295e-03 to 5.2081119333333399e-03 seconds.
Warning: Simulation tolerance relaxed to achieve convergence from 5.2181119333333291e-03 to 5.2181119333333395e-03 seconds.
Warning: Simulation tolerance relaxed to achieve convergence from 5.2281119333333305e-03 to 5.2281119333333409e-03 seconds.
Warning: Simulation tolerance relaxed to achieve convergence from 5.2381119333333300e-03 to 5.2381119333333405e-03 seconds.
Warning: Simulation tolerance relaxed to achieve convergence from 5.2481119333333296e-03 to 5.2481119333333400e-03 seconds.
Warning: Simulation tolerance relaxed to achieve convergence from 5.2581119333333292e-03 to 5.2581119333333396e-03 seconds.
Warning: Simulation tolerance relaxed to achieve convergence from 5.2681119333333306e-03 to 5.2681119333333410e-03 seconds.
Warning: Simulation tolerance relaxed to achieve convergence from 5.2781119333333302e-03 to 5.2781119333333406e-03 seconds.
Warning: Simulation tolerance relaxed to achieve convergence from 5.2881119333333297e-03 to 5.2881119333333402e-03 seconds.
Warning: Simulation tolerance relaxed to achieve convergence from 5.2981119333333293e-03 to 5.2981119333333397e-03 seconds.
Warning: Simulation tolerance relaxed to achieve convergence from 5.3081119333333289e-03 to 5.3081119333333393e-03 seconds.
Warning: Simulation tolerance relaxed to achieve convergence from 5.3181119333333303e-03 to 5.3181119333333407e-03 seconds.
Warning: Simulation tolerance relaxed to achieve convergence from 5.3281119333333299e-03 to 5.3281119333333403e-03 seconds.
Warning: Simulation tolerance relaxed to achieve convergence from 5.3381119333333294e-03 to 5.3381119333333399e-03 seconds.
Warning: Simulation tolerance relaxed to achieve convergence from 5.3481119333333290e-03 to 5.3481119333333394e-03 seconds.
Warning: Simulation tolerance relaxed to achieve convergence from 5.3581119333333304e-03 to 5.3581119333333408e-03 seconds.
Warning: Simulation tolerance relaxed to achieve convergence from 5.3681119333333300e-03 to 5.3681119333333404e-03 seconds.
Warning: Simulation tolerance relaxed to achieve convergence from 5.3781119333333295e-03 to 5.3781119333333400e-03 seconds.
Warning: Simulation tolerance relaxed to achieve convergence from 5.3881119333333291e-03 to 5.3881119333333395e-03 seconds.
Warning: Simulation tolerance relaxed to achieve convergence from 5.3981119333333305e-03 to 5.3981119333333409e-03 seconds.
Warning: Simulation tolerance relaxed to achieve convergence from 5.4081119333333301e-03 to 5.4081119333333405e-03 seconds.
Warning: Simulation tolerance relaxed to achieve convergence from 5.4181119333333297e-03 to 5.4181119333333401e-03 seconds.
Warning: Simulation tolerance relaxed to achieve convergence from 5.4281119333333292e-03 to 5.4281119333333397e-03 seconds.
Warning: Simulation tolerance relaxed to achieve convergence from 5.4381119333333306e-03 to 5.4381119333333410e-03 seconds.
Warning: Simulation tolerance relaxed to achieve convergence from 5.4481119333333302e-03 to 5.4481119333333406e-03 seconds.
Warning: Simulation tolerance relaxed to achieve convergence from 5.4581119333333298e-03 to 5.4581119333333402e-03 seconds.
Warning: Simulation tolerance relaxed to achieve convergence from 5.4681119333333294e-03 to 5.4681119333333398e-03 seconds.
Warning: Simulation tolerance relaxed to achieve convergence from 5.4781119333333289e-03 to 5.4781119333333394e-03 seconds.
Warning: Simulation tolerance relaxed to achieve convergence from 5.4881119333333303e-03 to 5.4881119333333407e-03 seconds.
Warning: Simulation tolerance relaxed to achieve convergence from 5.4981119333333299e-03 to 5.4981119333333403e-03 seconds.
Warning: Simulation tolerance relaxed to achieve convergence from 5.5081119333333295e-03 to 5.5081119333333399e-03 seconds.
Warning: Simulation tolerance relaxed to achieve convergence from 5.5181119333333290e-03 to 5.5181119333333395e-03 seconds.
Warning: Simulation tolerance relaxed to achieve convergence from 5.5281119333333304e-03 to 5.5281119333333408e-03 seconds.
Warning: Simulation tolerance relaxed to achieve convergence from 5.5381119333333300e-03 to 5.5381119333333404e-03 seconds.
Warning: Simulation tolerance relaxed to achieve convergence from 5.5481119333333296e-03 to 5.5481119333333400e-03 seconds.
Warning: Simulation tolerance relaxed to achieve convergence from 5.5581119333333292e-03 to 5.5581119333333396e-03 seconds.
Warning: Simulation tolerance relaxed to achieve convergence from 5.5681119333333305e-03 to 5.5681119333333409e-03 seconds.
Warning: Simulation tolerance relaxed to achieve convergence from 5.5781119333333301e-03 to 5.5781119333333405e-03 seconds.
Warning: Simulation tolerance relaxed to achieve convergence from 5.5881119333333297e-03 to 5.5881119333333401e-03 seconds.
Warning: Simulation tolerance relaxed to achieve convergence from 5.5981119333333293e-03 to 5.5981119333333397e-03 seconds.
Warning: Simulation tolerance relaxed to achieve convergence from 5.6081119333333289e-03 to 5.6081119333333393e-03 seconds.
Warning: Simulation tolerance relaxed to achieve convergence from 5.6181119333333302e-03 to 5.6181119333333406e-03 seconds.
Warning: Simulation tolerance relaxed to achieve convergence from 5.6281119333333298e-03 to 5.6281119333333402e-03 seconds.
Warning: Simulation tolerance relaxed to achieve convergence from 5.6381119333333294e-03 to 5.6381119333333398e-03 seconds.
Warning: Simulation tolerance relaxed to achieve convergence from 5.6481119333333290e-03 to 5.6481119333333394e-03 seconds.
Warning: Simulation tolerance relaxed to achieve convergence from 5.6581119333333303e-03 to 5.6581119333333407e-03 seconds.
Warning: Simulation tolerance relaxed to achieve convergence from 5.6681119333333299e-03 to 5.6681119333333403e-03 seconds.
Warning: Simulation tolerance relaxed to achieve convergence from 5.6781119333333295e-03 to 5.6781119333333399e-03 seconds.
Warning: Simulation tolerance relaxed to achieve convergence from 5.6881119333333291e-03 to 5.6881119333333395e-03 seconds.
Warning: Simulation tolerance relaxed to achieve convergence from 5.6981119333333304e-03 to 5.6981119333333408e-03 seconds.
Warning: Simulation tolerance relaxed to achieve convergence from 5.7081119333333300e-03 to 5.7081119333333404e-03 seconds.
Warning: Simulation tolerance relaxed to achieve convergence from 5.7181119333333296e-03 to 5.7181119333333400e-03 seconds.
Warning: Simulation tolerance relaxed to achieve convergence from 5.7281119333333292e-03 to 5.7281119333333396e-03 seconds.
Warning: Simulation tolerance relaxed to achieve convergence from 5.7381119333333305e-03 to 5.7381119333333409e-03 seconds.
Warning: Simulation tolerance relaxed to achieve convergence from 5.7481119333333301e-03 to 5.7481119333333405e-03 seconds.
Warning: Simulation tolerance relaxed to achieve convergence from 5.7581119333333297e-03 to 5.7581119333333401e-03 seconds.
Warning: Simulation tolerance relaxed to achieve convergence from 5.7681119333333293e-03 to 5.7681119333333397e-03 seconds.
Warning: Simulation tolerance relaxed to achieve convergence from 5.7781119333333289e-03 to 5.7781119333333393e-03 seconds.
Warning: Simulation tolerance relaxed to achieve convergence from 5.7881119333333302e-03 to 5.7881119333333406e-03 seconds.
Warning: Simulation tolerance relaxed to achieve convergence from 5.7981119333333298e-03 to 5.7981119333333402e-03 seconds.
Warning: Simulation tolerance relaxed to achieve convergence from 5.8081119333333294e-03 to 5.8081119333333398e-03 seconds.
Warning: Simulation tolerance relaxed to achieve convergence from 5.8181119333333290e-03 to 5.8181119333333394e-03 seconds.
Warning: Simulation tolerance relaxed to achieve convergence from 5.8281119333333303e-03 to 5.8281119333333407e-03 seconds.
Warning: Simulation tolerance relaxed to achieve convergence from 5.8381119333333299e-03 to 5.8381119333333403e-03 seconds.
Warning: Simulation tolerance relaxed to achieve convergence from 5.8481119333333295e-03 to 5.8481119333333399e-03 seconds.
Warning: Simulation tolerance relaxed to achieve convergence from 5.8581119333333291e-03 to 5.8581119333333395e-03 seconds.
Warning: Simulation tolerance relaxed to achieve convergence from 5.8681119333333304e-03 to 5.8681119333333408e-03 seconds.
Warning: Simulation tolerance relaxed to achieve convergence from 5.8781119333333300e-03 to 5.8781119333333404e-03 seconds.
Warning: Simulation tolerance relaxed to achieve convergence from 5.8881119333333296e-03 to 5.8881119333333400e-03 seconds.
Warning: Simulation tolerance relaxed to achieve convergence from 5.8981119333333292e-03 to 5.8981119333333396e-03 seconds.
Warning: Simulation tolerance relaxed to achieve convergence from 5.9081119333333305e-03 to 5.9081119333333409e-03 seconds.
Warning: Simulation tolerance relaxed to achieve convergence from 5.9181119333333301e-03 to 5.9181119333333405e-03 seconds.
Warning: Simulation tolerance relaxed to achieve convergence from 5.9281119333333297e-03 to 5.9281119333333401e-03 seconds.
Warning: Simulation tolerance relaxed to achieve convergence from 5.9381119333333293e-03 to 5.9381119333333397e-03 seconds.
Warning: Simulation tolerance relaxed to achieve convergence from 5.9481119333333289e-03 to 5.9481119333333393e-03 seconds.
Warning: Simulation tolerance relaxed to achieve convergence from 5.9581119333333302e-03 to 5.9581119333333406e-03 seconds.
Warning: Simulation tolerance relaxed to achieve convergence from 5.9681119333333298e-03 to 5.9681119333333402e-03 seconds.
Warning: Simulation tolerance relaxed to achieve convergence from 5.9781119333333294e-03 to 5.9781119333333398e-03 seconds.
Warning: Simulation tolerance relaxed to achieve convergence from 5.9881119333333290e-03 to 5.9881119333333394e-03 seconds.
Warning: Simulation tolerance relaxed to achieve convergence from 5.9981119333333303e-03 to 5.9981119333333407e-03 seconds.
Warning: Simulation tolerance relaxed to achieve convergence from 6.0081119333333299e-03 to 6.0081119333333403e-03 seconds.
Warning: Simulation tolerance relaxed to achieve convergence from 6.0181119333333295e-03 to 6.0181119333333399e-03 seconds.
Warning: Simulation tolerance relaxed to achieve convergence from 6.0281119333333291e-03 to 6.0281119333333395e-03 seconds.
Warning: Simulation tolerance relaxed to achieve convergence from 6.0381119333333304e-03 to 6.0381119333333408e-03 seconds.
Warning: Simulation tolerance relaxed to achieve convergence from 6.0481119333333300e-03 to 6.0481119333333404e-03 seconds.
Warning: Simulation tolerance relaxed to achieve convergence from 6.0581119333333296e-03 to 6.0581119333333400e-03 seconds.
Warning: Simulation tolerance relaxed to achieve convergence from 6.0681119333333292e-03 to 6.0681119333333396e-03 seconds.
Warning: Simulation tolerance relaxed to achieve convergence from 6.0781119333333305e-03 to 6.0781119333333409e-03 seconds.
Warning: Simulation tolerance relaxed to achieve convergence from 6.0881119333333301e-03 to 6.0881119333333405e-03 seconds.
Warning: Simulation tolerance relaxed to achieve convergence from 6.0981119333333297e-03 to 6.0981119333333401e-03 seconds.
Warning: Simulation tolerance relaxed to achieve convergence from 6.1081119333333293e-03 to 6.1081119333333397e-03 seconds.
Warning: Simulation tolerance relaxed to achieve convergence from 6.1181119333333289e-03 to 6.1181119333333393e-03 seconds.
Warning: Simulation tolerance relaxed to achieve convergence from 6.1281119333333302e-03 to 6.1281119333333406e-03 seconds.
Warning: Simulation tolerance relaxed to achieve convergence from 6.1381119333333298e-03 to 6.1381119333333402e-03 seconds.
Warning: Simulation tolerance relaxed to achieve convergence from 6.1481119333333294e-03 to 6.1481119333333398e-03 seconds.
Warning: Simulation tolerance relaxed to achieve convergence from 6.1581119333333290e-03 to 6.1581119333333394e-03 seconds.
Warning: Simulation tolerance relaxed to achieve convergence from 6.1681119333333303e-03 to 6.1681119333333407e-03 seconds.
Warning: Simulation tolerance relaxed to achieve convergence from 6.1781119333333299e-03 to 6.1781119333333403e-03 seconds.
Warning: Simulation tolerance relaxed to achieve convergence from 6.1881119333333295e-03 to 6.1881119333333399e-03 seconds.
Warning: Simulation tolerance relaxed to achieve convergence from 6.1981119333333291e-03 to 6.1981119333333395e-03 seconds.
Warning: Simulation tolerance relaxed to achieve convergence from 6.2081119333333304e-03 to 6.2081119333333408e-03 seconds.
Warning: Simulation tolerance relaxed to achieve convergence from 6.2181119333333300e-03 to 6.2181119333333404e-03 seconds.
Warning: Simulation tolerance relaxed to achieve convergence from 6.2281119333333296e-03 to 6.2281119333333400e-03 seconds.
Warning: Simulation tolerance relaxed to achieve convergence from 6.2381119333333292e-03 to 6.2381119333333396e-03 seconds.
Warning: Simulation tolerance relaxed to achieve convergence from 6.2481119333333288e-03 to 6.2481119333333392e-03 seconds.
Warning: Simulation tolerance relaxed to achieve convergence from 6.2581119333333301e-03 to 6.2581119333333405e-03 seconds.
Warning: Simulation tolerance relaxed to achieve convergence from 6.2681119333333297e-03 to 6.2681119333333401e-03 seconds.
Warning: Simulation tolerance relaxed to achieve convergence from 6.2781119333333293e-03 to 6.2781119333333397e-03 seconds.
Warning: Simulation tolerance relaxed to achieve convergence from 6.2881119333333289e-03 to 6.2881119333333393e-03 seconds.
Warning: Simulation tolerance relaxed to achieve convergence from 6.2981119333333302e-03 to 6.2981119333333406e-03 seconds.
Warning: Simulation tolerance relaxed to achieve convergence from 6.3081119333333298e-03 to 6.3081119333333402e-03 seconds.
Warning: Simulation tolerance relaxed to achieve convergence from 6.3181119333333294e-03 to 6.3181119333333398e-03 seconds.
Warning: Simulation tolerance relaxed to achieve convergence from 6.3281119333333290e-03 to 6.3281119333333394e-03 seconds.
Warning: Simulation tolerance relaxed to achieve convergence from 6.3381119333333303e-03 to 6.3381119333333407e-03 seconds.
Warning: Simulation tolerance relaxed to achieve convergence from 6.3481119333333299e-03 to 6.3481119333333403e-03 seconds.
Warning: Simulation tolerance relaxed to achieve convergence from 6.3581119333333295e-03 to 6.3581119333333399e-03 seconds.
Warning: Simulation tolerance relaxed to achieve convergence from 6.3681119333333291e-03 to 6.3681119333333395e-03 seconds.
Warning: Simulation tolerance relaxed to achieve convergence from 6.3781119333333304e-03 to 6.3781119333333408e-03 seconds.
Warning: Simulation tolerance relaxed to achieve convergence from 6.3881119333333300e-03 to 6.3881119333333404e-03 seconds.
Warning: Simulation tolerance relaxed to achieve convergence from 6.3981119333333296e-03 to 6.3981119333333400e-03 seconds.
Warning: Simulation tolerance relaxed to achieve convergence from 6.4081119333333292e-03 to 6.4081119333333396e-03 seconds.
Warning: Simulation tolerance relaxed to achieve convergence from 6.4181119333333288e-03 to 6.4181119333333392e-03 seconds.
[...]
Warning: Simulation tolerance relaxed to achieve convergence from 8.4181119333333315e-03 to 8.4181119333333419e-03 seconds.
Warning: Simulation tolerance relaxed to achieve convergence from 8.4281119333333310e-03 to 8.4281119333333415e-03 seconds.
Warning: Simulation tolerance relaxed to achieve convergence from 8.4381119333333272e-03 to 8.4381119333333376e-03 seconds.
Warning: Simulation tolerance relaxed to achieve convergence from 8.4481119333333268e-03 to 8.4481119333333372e-03 seconds.
Warning: Simulation tolerance relaxed to achieve convergence from 8.4581119333333264e-03 to 8.4581119333333368e-03 seconds.
Warning: Simulation tolerance relaxed to achieve convergence from 8.4681119333333259e-03 to 8.4681119333333364e-03 seconds.
Warning: Simulation tolerance relaxed to achieve convergence from 8.4781119333333325e-03 to 8.4781119333333429e-03 seconds.
Warning: Simulation tolerance relaxed to achieve convergence from 8.4881119333333321e-03 to 8.4881119333333425e-03 seconds.
Warning: Simulation tolerance relaxed to achieve convergence from 8.4981119333333317e-03 to 8.4981119333333421e-03 seconds.
Warning: Simulation tolerance relaxed to achieve convergence from 8.5081119333333313e-03 to 8.5081119333333417e-03 seconds.
Warning: Simulation tolerance relaxed to achieve convergence from 8.5181119333333308e-03 to 8.5181119333333413e-03 seconds.
Warning: Simulation tolerance relaxed to achieve convergence from 8.5281119333333270e-03 to 8.5281119333333374e-03 seconds.
Warning: Simulation tolerance relaxed to achieve convergence from 8.5381119333333266e-03 to 8.5381119333333370e-03 seconds.
Warning: Simulation tolerance relaxed to achieve convergence from 8.5481119333333262e-03 to 8.5481119333333366e-03 seconds.
Warning: Simulation tolerance relaxed to achieve convergence from 8.5581119333333257e-03 to 8.5581119333333362e-03 seconds.
Warning: Simulation tolerance relaxed to achieve convergence from 8.5681119333333323e-03 to 8.5681119333333427e-03 seconds.
Warning: Simulation tolerance relaxed to achieve convergence from 8.5781119333333319e-03 to 8.5781119333333423e-03 seconds.
Warning: Simulation tolerance relaxed to achieve convergence from 8.5881119333333315e-03 to 8.5881119333333419e-03 seconds.
Warning: Simulation tolerance relaxed to achieve convergence from 8.5981119333333311e-03 to 8.5981119333333415e-03 seconds.
Warning: Simulation tolerance relaxed to achieve convergence from 8.6081119333333272e-03 to 8.6081119333333376e-03 seconds.
Warning: Simulation tolerance relaxed to achieve convergence from 8.6181119333333268e-03 to 8.6181119333333372e-03 seconds.
Warning: Simulation tolerance relaxed to achieve convergence from 8.6281119333333264e-03 to 8.6281119333333368e-03 seconds.
Warning: Simulation tolerance relaxed to achieve convergence from 8.6381119333333260e-03 to 8.6381119333333364e-03 seconds.
Warning: Simulation tolerance relaxed to achieve convergence from 8.6481119333333255e-03 to 8.6481119333333360e-03 seconds.
Warning: Simulation tolerance relaxed to achieve convergence from 8.6581119333333321e-03 to 8.6581119333333425e-03 seconds.
Warning: Simulation tolerance relaxed to achieve convergence from 8.6681119333333317e-03 to 8.6681119333333421e-03 seconds.
Warning: Simulation tolerance relaxed to achieve convergence from 8.6781119333333313e-03 to 8.6781119333333417e-03 seconds.
Warning: Simulation tolerance relaxed to achieve convergence from 8.6881119333333309e-03 to 8.6881119333333413e-03 seconds.
Warning: Simulation tolerance relaxed to achieve convergence from 8.6981119333333270e-03 to 8.6981119333333374e-03 seconds.
Warning: Simulation tolerance relaxed to achieve convergence from 8.7081119333333266e-03 to 8.7081119333333370e-03 seconds.
Warning: Simulation tolerance relaxed to achieve convergence from 8.7181119333333262e-03 to 8.7181119333333366e-03 seconds.
Warning: Simulation tolerance relaxed to achieve convergence from 8.7281119333333258e-03 to 8.7281119333333362e-03 seconds.
Warning: Simulation tolerance relaxed to achieve convergence from 8.7381119333333323e-03 to 8.7381119333333427e-03 seconds.
Warning: Simulation tolerance relaxed to achieve convergence from 8.7481119333333319e-03 to 8.7481119333333423e-03 seconds.
Warning: Simulation tolerance relaxed to achieve convergence from 8.7581119333333315e-03 to 8.7581119333333419e-03 seconds.
Warning: Simulation tolerance relaxed to achieve convergence from 8.7681119333333311e-03 to 8.7681119333333415e-03 seconds.
Warning: Simulation tolerance relaxed to achieve convergence from 8.7781119333333272e-03 to 8.7781119333333376e-03 seconds.
Warning: Simulation tolerance relaxed to achieve convergence from 8.7881119333333268e-03 to 8.7881119333333372e-03 seconds.
Warning: Simulation tolerance relaxed to achieve convergence from 8.7981119333333264e-03 to 8.7981119333333368e-03 seconds.
Warning: Simulation tolerance relaxed to achieve convergence from 8.8081119333333260e-03 to 8.8081119333333364e-03 seconds.
Warning: Simulation tolerance relaxed to achieve convergence from 8.8181119333333256e-03 to 8.8181119333333360e-03 seconds.
Warning: Simulation tolerance relaxed to achieve convergence from 8.8281119333333321e-03 to 8.8281119333333425e-03 seconds.
Warning: Simulation tolerance relaxed to achieve convergence from 8.8381119333333317e-03 to 8.8381119333333421e-03 seconds.
Warning: Simulation tolerance relaxed to achieve convergence from 8.8481119333333313e-03 to 8.8481119333333417e-03 seconds.
Warning: Simulation tolerance relaxed to achieve convergence from 8.8581119333333309e-03 to 8.8581119333333413e-03 seconds.
Warning: Simulation tolerance relaxed to achieve convergence from 8.8681119333333270e-03 to 8.8681119333333374e-03 seconds.
Warning: Simulation tolerance relaxed to achieve convergence from 8.8781119333333266e-03 to 8.8781119333333370e-03 seconds.
Warning: Simulation tolerance relaxed to achieve convergence from 8.8881119333333262e-03 to 8.8881119333333366e-03 seconds.
Warning: Simulation tolerance relaxed to achieve convergence from 8.8981119333333258e-03 to 8.8981119333333362e-03 seconds.
Warning: Simulation tolerance relaxed to achieve convergence from 8.9081119333333323e-03 to 8.9081119333333427e-03 seconds.
Warning: Simulation tolerance relaxed to achieve convergence from 8.9181119333333319e-03 to 8.9181119333333423e-03 seconds.
Warning: Simulation tolerance relaxed to achieve convergence from 8.9281119333333315e-03 to 8.9281119333333419e-03 seconds.
Warning: Simulation tolerance relaxed to achieve convergence from 8.9381119333333311e-03 to 8.9381119333333415e-03 seconds.
Warning: Simulation tolerance relaxed to achieve convergence from 8.9481119333333272e-03 to 8.9481119333333376e-03 seconds.
Warning: Simulation tolerance relaxed to achieve convergence from 8.9581119333333268e-03 to 8.9581119333333372e-03 seconds.
Warning: Simulation tolerance relaxed to achieve convergence from 8.9681119333333264e-03 to 8.9681119333333368e-03 seconds.
Warning: Simulation tolerance relaxed to achieve convergence from 8.9781119333333260e-03 to 8.9781119333333364e-03 seconds.
Warning: Simulation tolerance relaxed to achieve convergence from 8.9881119333333256e-03 to 8.9881119333333360e-03 seconds.
Warning: Simulation tolerance relaxed to achieve convergence from 8.9981119333333321e-03 to 8.9981119333333425e-03 seconds.
Warning: Simulation tolerance relaxed to achieve convergence from 9.0081119333333317e-03 to 9.0081119333333421e-03 seconds.
Warning: Simulation tolerance relaxed to achieve convergence from 9.0181119333333313e-03 to 9.0181119333333417e-03 seconds.
Warning: Simulation tolerance relaxed to achieve convergence from 9.0281119333333309e-03 to 9.0281119333333413e-03 seconds.
Warning: Simulation tolerance relaxed to achieve convergence from 9.0381119333333270e-03 to 9.0381119333333374e-03 seconds.
Warning: Simulation tolerance relaxed to achieve convergence from 9.0481119333333266e-03 to 9.0481119333333370e-03 seconds.
Warning: Simulation tolerance relaxed to achieve convergence from 9.0581119333333262e-03 to 9.0581119333333366e-03 seconds.
Warning: Simulation tolerance relaxed to achieve convergence from 9.0681119333333258e-03 to 9.0681119333333362e-03 seconds.
Warning: Simulation tolerance relaxed to achieve convergence from 9.0781119333333323e-03 to 9.0781119333333427e-03 seconds.
Warning: Simulation tolerance relaxed to achieve convergence from 9.0881119333333319e-03 to 9.0881119333333423e-03 seconds.
Warning: Simulation tolerance relaxed to achieve convergence from 9.0981119333333315e-03 to 9.0981119333333419e-03 seconds.
Warning: Simulation tolerance relaxed to achieve convergence from 9.1081119333333311e-03 to 9.1081119333333415e-03 seconds.
Warning: Simulation tolerance relaxed to achieve convergence from 9.1181119333333272e-03 to 9.1181119333333376e-03 seconds.
Warning: Simulation tolerance relaxed to achieve convergence from 9.1281119333333268e-03 to 9.1281119333333372e-03 seconds.
Warning: Simulation tolerance relaxed to achieve convergence from 9.1381119333333264e-03 to 9.1381119333333368e-03 seconds.
Warning: Simulation tolerance relaxed to achieve convergence from 9.1481119333333260e-03 to 9.1481119333333364e-03 seconds.
Warning: Simulation tolerance relaxed to achieve convergence from 9.1581119333333256e-03 to 9.1581119333333360e-03 seconds.
Warning: Simulation tolerance relaxed to achieve convergence from 9.1681119333333321e-03 to 9.1681119333333425e-03 seconds.
Warning: Simulation tolerance relaxed to achieve convergence from 9.1781119333333317e-03 to 9.1781119333333421e-03 seconds.
Warning: Simulation tolerance relaxed to achieve convergence from 9.1881119333333313e-03 to 9.1881119333333417e-03 seconds.
Warning: Simulation tolerance relaxed to achieve convergence from 9.1981119333333309e-03 to 9.1981119333333413e-03 seconds.
Warning: Simulation tolerance relaxed to achieve convergence from 9.2081119333333270e-03 to 9.2081119333333374e-03 seconds.
Warning: Simulation tolerance relaxed to achieve convergence from 9.2181119333333266e-03 to 9.2181119333333370e-03 seconds.
Warning: Simulation tolerance relaxed to achieve convergence from 9.2281119333333262e-03 to 9.2281119333333366e-03 seconds.
Warning: Simulation tolerance relaxed to achieve convergence from 9.2381119333333258e-03 to 9.2381119333333362e-03 seconds.
Warning: Simulation tolerance relaxed to achieve convergence from 9.2481119333333323e-03 to 9.2481119333333427e-03 seconds.
Warning: Simulation tolerance relaxed to achieve convergence from 9.2581119333333319e-03 to 9.2581119333333423e-03 seconds.
Warning: Simulation tolerance relaxed to achieve convergence from 9.2681119333333315e-03 to 9.2681119333333419e-03 seconds.
Warning: Simulation tolerance relaxed to achieve convergence from 9.2781119333333311e-03 to 9.2781119333333415e-03 seconds.
Warning: Simulation tolerance relaxed to achieve convergence from 9.2881119333333272e-03 to 9.2881119333333376e-03 seconds.
Warning: Simulation tolerance relaxed to achieve convergence from 9.2981119333333268e-03 to 9.2981119333333372e-03 seconds.
Warning: Simulation tolerance relaxed to achieve convergence from 9.3081119333333264e-03 to 9.3081119333333368e-03 seconds.
Warning: Simulation tolerance relaxed to achieve convergence from 9.3181119333333260e-03 to 9.3181119333333364e-03 seconds.
Warning: Simulation tolerance relaxed to achieve convergence from 9.3281119333333256e-03 to 9.3281119333333360e-03 seconds.
Warning: Simulation tolerance relaxed to achieve convergence from 9.3381119333333321e-03 to 9.3381119333333425e-03 seconds.
Warning: Simulation tolerance relaxed to achieve convergence from 9.3481119333333317e-03 to 9.3481119333333421e-03 seconds.
Warning: Simulation tolerance relaxed to achieve convergence from 9.3581119333333313e-03 to 9.3581119333333417e-03 seconds.
Warning: Simulation tolerance relaxed to achieve convergence from 9.3681119333333309e-03 to 9.3681119333333413e-03 seconds.
Warning: Simulation tolerance relaxed to achieve convergence from 9.3781119333333270e-03 to 9.3781119333333374e-03 seconds.
Warning: Simulation tolerance relaxed to achieve convergence from 9.3881119333333266e-03 to 9.3881119333333370e-03 seconds.
Warning: Simulation tolerance relaxed to achieve convergence from 9.3981119333333262e-03 to 9.3981119333333366e-03 seconds.
Warning: Simulation tolerance relaxed to achieve convergence from 9.4081119333333258e-03 to 9.4081119333333362e-03 seconds.
Warning: Simulation tolerance relaxed to achieve convergence from 9.4181119333333323e-03 to 9.4181119333333427e-03 seconds.
Warning: Simulation tolerance relaxed to achieve convergence from 9.4281119333333319e-03 to 9.4281119333333423e-03 seconds.
Warning: Simulation tolerance relaxed to achieve convergence from 9.4381119333333315e-03 to 9.4381119333333419e-03 seconds.
Warning: Simulation tolerance relaxed to achieve convergence from 9.4481119333333311e-03 to 9.4481119333333415e-03 seconds.
Warning: Simulation tolerance relaxed to achieve convergence from 9.4581119333333307e-03 to 9.4581119333333411e-03 seconds.
Warning: Simulation tolerance relaxed to achieve convergence from 9.4681119333333268e-03 to 9.4681119333333372e-03 seconds.
Warning: Simulation tolerance relaxed to achieve convergence from 9.4781119333333264e-03 to 9.4781119333333368e-03 seconds.
Warning: Simulation tolerance relaxed to achieve convergence from 9.4881119333333260e-03 to 9.4881119333333364e-03 seconds.
Warning: Simulation tolerance relaxed to achieve convergence from 9.4981119333333256e-03 to 9.4981119333333360e-03 seconds.
Warning: Simulation tolerance relaxed to achieve convergence from 9.5081119333333321e-03 to 9.5081119333333425e-03 seconds.
Warning: Simulation tolerance relaxed to achieve convergence from 9.5181119333333317e-03 to 9.5181119333333421e-03 seconds.
Warning: Simulation tolerance relaxed to achieve convergence from 9.5281119333333313e-03 to 9.5281119333333417e-03 seconds.
Warning: Simulation tolerance relaxed to achieve convergence from 9.5381119333333309e-03 to 9.5381119333333413e-03 seconds.
Warning: Simulation tolerance relaxed to achieve convergence from 9.5481119333333270e-03 to 9.5481119333333375e-03 seconds.
Warning: Simulation tolerance relaxed to achieve convergence from 9.5581119333333266e-03 to 9.5581119333333370e-03 seconds.
Warning: Simulation tolerance relaxed to achieve convergence from 9.5681119333333262e-03 to 9.5681119333333366e-03 seconds.
Warning: Simulation tolerance relaxed to achieve convergence from 9.5781119333333258e-03 to 9.5781119333333362e-03 seconds.
Warning: Simulation tolerance relaxed to achieve convergence from 9.5881119333333324e-03 to 9.5881119333333428e-03 seconds.
Warning: Simulation tolerance relaxed to achieve convergence from 9.5981119333333319e-03 to 9.5981119333333424e-03 seconds.
Warning: Simulation tolerance relaxed to achieve convergence from 9.6081119333333315e-03 to 9.6081119333333419e-03 seconds.
Warning: Simulation tolerance relaxed to achieve convergence from 9.6181119333333311e-03 to 9.6181119333333415e-03 seconds.
Warning: Simulation tolerance relaxed to achieve convergence from 9.6281119333333307e-03 to 9.6281119333333411e-03 seconds.
Warning: Simulation tolerance relaxed to achieve convergence from 9.6381119333333268e-03 to 9.6381119333333373e-03 seconds.
Warning: Simulation tolerance relaxed to achieve convergence from 9.6481119333333264e-03 to 9.6481119333333368e-03 seconds.
Warning: Simulation tolerance relaxed to achieve convergence from 9.6581119333333260e-03 to 9.6581119333333364e-03 seconds.
Warning: Simulation tolerance relaxed to achieve convergence from 9.6681119333333256e-03 to 9.6681119333333360e-03 seconds.
Warning: Simulation tolerance relaxed to achieve convergence from 9.6781119333333322e-03 to 9.6781119333333426e-03 seconds.
Warning: Simulation tolerance relaxed to achieve convergence from 9.6881119333333317e-03 to 9.6881119333333422e-03 seconds.
Warning: Simulation tolerance relaxed to achieve convergence from 9.6981119333333313e-03 to 9.6981119333333417e-03 seconds.
Warning: Simulation tolerance relaxed to achieve convergence from 9.7081119333333309e-03 to 9.7081119333333413e-03 seconds.
Warning: Simulation tolerance relaxed to achieve convergence from 9.7181119333333271e-03 to 9.7181119333333375e-03 seconds.
Warning: Simulation tolerance relaxed to achieve convergence from 9.7281119333333266e-03 to 9.7281119333333371e-03 seconds.
Warning: Simulation tolerance relaxed to achieve convergence from 9.7381119333333262e-03 to 9.7381119333333366e-03 seconds.
Warning: Simulation tolerance relaxed to achieve convergence from 9.7481119333333258e-03 to 9.7481119333333362e-03 seconds.
Warning: Simulation tolerance relaxed to achieve convergence from 9.7581119333333324e-03 to 9.7581119333333428e-03 seconds.
Warning: Simulation tolerance relaxed to achieve convergence from 9.7681119333333320e-03 to 9.7681119333333424e-03 seconds.
Warning: Simulation tolerance relaxed to achieve convergence from 9.7781119333333315e-03 to 9.7781119333333420e-03 seconds.
Warning: Simulation tolerance relaxed to achieve convergence from 9.7881119333333311e-03 to 9.7881119333333415e-03 seconds.
Warning: Simulation tolerance relaxed to achieve convergence from 9.7981119333333307e-03 to 9.7981119333333411e-03 seconds.
Warning: Simulation tolerance relaxed to achieve convergence from 9.8081119333333269e-03 to 9.8081119333333373e-03 seconds.
Warning: Simulation tolerance relaxed to achieve convergence from 9.8181119333333264e-03 to 9.8181119333333369e-03 seconds.
Warning: Simulation tolerance relaxed to achieve convergence from 9.8281119333333260e-03 to 9.8281119333333365e-03 seconds.
Warning: Simulation tolerance relaxed to achieve convergence from 9.8381119333333256e-03 to 9.8381119333333360e-03 seconds.
Warning: Simulation tolerance relaxed to achieve convergence from 9.8481119333333322e-03 to 9.8481119333333426e-03 seconds.
Warning: Simulation tolerance relaxed to achieve convergence from 9.8581119333333318e-03 to 9.8581119333333422e-03 seconds.
Warning: Simulation tolerance relaxed to achieve convergence from 9.8681119333333314e-03 to 9.8681119333333418e-03 seconds.
Warning: Simulation tolerance relaxed to achieve convergence from 9.8781119333333309e-03 to 9.8781119333333414e-03 seconds.
Warning: Simulation tolerance relaxed to achieve convergence from 9.8881119333333271e-03 to 9.8881119333333375e-03 seconds.
Warning: Simulation tolerance relaxed to achieve convergence from 9.8981119333333267e-03 to 9.8981119333333371e-03 seconds.
Warning: Simulation tolerance relaxed to achieve convergence from 9.9081119333333263e-03 to 9.9081119333333367e-03 seconds.
Warning: Simulation tolerance relaxed to achieve convergence from 9.9181119333333258e-03 to 9.9181119333333363e-03 seconds.
Warning: Simulation tolerance relaxed to achieve convergence from 9.9281119333333254e-03 to 9.9281119333333358e-03 seconds.
Warning: Simulation tolerance relaxed to achieve convergence from 9.9381119333333320e-03 to 9.9381119333333424e-03 seconds.
Warning: Simulation tolerance relaxed to achieve convergence from 9.9481119333333316e-03 to 9.9481119333333420e-03 seconds.
Warning: Simulation tolerance relaxed to achieve convergence from 9.9581119333333312e-03 to 9.9581119333333416e-03 seconds.
Warning: Simulation tolerance relaxed to achieve convergence from 9.9681119333333307e-03 to 9.9681119333333412e-03 seconds.
Warning: Simulation tolerance relaxed to achieve convergence from 9.9781119333333269e-03 to 9.9781119333333373e-03 seconds.
Warning: Simulation tolerance relaxed to achieve convergence from 9.9881119333333265e-03 to 9.9881119333333369e-03 seconds.
Warning: Simulation tolerance relaxed to achieve convergence from 9.9981119333333261e-03 to 9.9981119333333365e-03 seconds.
Total elapsed time: 5.246 seconds.

Files loaded:
C:\Users\dasre\Documents\Knowledge-db\ghFiles\HW-Projects\E2-BoostConverter\Examen2Boost.net
C:\Users\dasre\AppData\Local\LTspice\lib\cmp\standard.dio

